Title Card Required
 OpenBabel03192317533D

 72 77  0  0  1  0  0  0  0  0999 V2000
   -0.5823    1.9531    0.4695 O   0  0  0  0  0  0  0  0  0  0  0  0
   -0.7489    0.5760    0.1652 C   0  0  2  0  0  0  0  0  0  0  0  0
    0.6215    0.1706   -0.4452 C   0  0  1  0  0  0  0  0  0  0  0  0
    1.4761    1.1624    0.0867 O   0  0  0  0  0  0  0  0  0  0  0  0
    0.7494    2.3582    0.1879 C   0  0  0  0  0  0  0  0  0  0  0  0
    0.8199    3.1381   -1.1270 C   0  0  0  0  0  0  0  0  0  0  0  0
    2.2574    3.5727   -1.4147 C   0  0  0  0  0  0  0  0  0  0  0  0
    2.8356    4.3821   -0.2541 C   0  0  0  0  0  0  0  0  0  0  0  0
    2.7459    3.6019    1.0579 C   0  0  0  0  0  0  0  0  0  0  0  0
    1.3065    3.1737    1.3425 C   0  0  0  0  0  0  0  0  0  0  0  0
   -1.9846    0.4492   -0.7477 C   0  0  0  0  0  0  0  0  0  0  0  0
   -1.7815    1.2257   -1.9066 O   0  0  0  0  0  0  0  0  0  0  0  0
   -2.1639   -0.9992   -1.1694 C   0  0  0  0  0  0  0  0  0  0  0  0
   -2.0186   -1.3839   -2.5034 C   0  0  0  0  0  0  0  0  0  0  0  0
   -2.1358   -2.7280   -2.8603 C   0  0  0  0  0  0  0  0  0  0  0  0
   -2.3891   -3.6960   -1.8904 C   0  0  0  0  0  0  0  0  0  0  0  0
   -2.5449   -3.3143   -0.5560 C   0  0  0  0  0  0  0  0  0  0  0  0
   -2.4424   -1.9710   -0.1982 C   0  0  0  0  0  0  0  0  0  0  0  0
   -3.2609    0.9263   -0.0396 C   0  0  0  0  0  0  0  0  0  0  0  0
   -4.4237    0.9999   -0.8172 C   0  0  0  0  0  0  0  0  0  0  0  0
   -5.6276    1.4164   -0.2601 C   0  0  0  0  0  0  0  0  0  0  0  0
   -5.6875    1.7656    1.0904 C   0  0  0  0  0  0  0  0  0  0  0  0
   -4.5354    1.7010    1.8685 C   0  0  0  0  0  0  0  0  0  0  0  0
   -3.3246    1.2873    1.3076 C   0  0  0  0  0  0  0  0  0  0  0  0
    1.2403   -1.2336   -0.1516 C   0  0  0  0  0  0  0  0  0  0  0  0
    0.6943   -2.1596   -1.0591 O   0  0  0  0  0  0  0  0  0  0  0  0
    2.7339   -1.1451   -0.5015 C   0  0  0  0  0  0  0  0  0  0  0  0
    3.6947   -0.7287    0.4242 C   0  0  0  0  0  0  0  0  0  0  0  0
    5.0313   -0.6058    0.0514 C   0  0  0  0  0  0  0  0  0  0  0  0
    5.4285   -0.9000   -1.2526 C   0  0  0  0  0  0  0  0  0  0  0  0
    4.4771   -1.3218   -2.1781 C   0  0  0  0  0  0  0  0  0  0  0  0
    3.1385   -1.4449   -1.8057 C   0  0  0  0  0  0  0  0  0  0  0  0
    1.0298   -1.7131    1.2880 C   0  0  0  0  0  0  0  0  0  0  0  0
    1.0595   -0.8450    2.3882 C   0  0  0  0  0  0  0  0  0  0  0  0
    0.8651   -1.3291    3.6809 C   0  0  0  0  0  0  0  0  0  0  0  0
    0.6437   -2.6887    3.8978 C   0  0  0  0  0  0  0  0  0  0  0  0
    0.6235   -3.5601    2.8113 C   0  0  0  0  0  0  0  0  0  0  0  0
    0.8165   -3.0765    1.5177 C   0  0  0  0  0  0  0  0  0  0  0  0
   -0.9321    0.0158    1.0946 H   0  0  0  0  0  0  0  0  0  0  0  0
    0.5708    0.2426   -1.5468 H   0  0  0  0  0  0  0  0  0  0  0  0
    0.1575    4.0153   -1.0354 H   0  0  0  0  0  0  0  0  0  0  0  0
    0.4303    2.5082   -1.9407 H   0  0  0  0  0  0  0  0  0  0  0  0
    2.2955    4.1515   -2.3491 H   0  0  0  0  0  0  0  0  0  0  0  0
    2.8679    2.6673   -1.5663 H   0  0  0  0  0  0  0  0  0  0  0  0
    3.8809    4.6530   -0.4641 H   0  0  0  0  0  0  0  0  0  0  0  0
    2.2759    5.3289   -0.1542 H   0  0  0  0  0  0  0  0  0  0  0  0
    3.3730    2.6978    0.9880 H   0  0  0  0  0  0  0  0  0  0  0  0
    3.1314    4.2028    1.8945 H   0  0  0  0  0  0  0  0  0  0  0  0
    0.6565    4.0534    1.4736 H   0  0  0  0  0  0  0  0  0  0  0  0
    1.2334    2.5685    2.2583 H   0  0  0  0  0  0  0  0  0  0  0  0
   -1.7153    2.1414   -1.6023 H   0  0  0  0  0  0  0  0  0  0  0  0
   -1.8013   -0.6224   -3.2513 H   0  0  0  0  0  0  0  0  0  0  0  0
   -2.0142   -3.0215   -3.9039 H   0  0  0  0  0  0  0  0  0  0  0  0
   -2.4667   -4.7471   -2.1712 H   0  0  0  0  0  0  0  0  0  0  0  0
   -2.7449   -4.0641    0.2109 H   0  0  0  0  0  0  0  0  0  0  0  0
   -2.5799   -1.6748    0.8447 H   0  0  0  0  0  0  0  0  0  0  0  0
   -4.3678    0.7245   -1.8726 H   0  0  0  0  0  0  0  0  0  0  0  0
   -6.5246    1.4651   -0.8796 H   0  0  0  0  0  0  0  0  0  0  0  0
   -6.6305    2.0918    1.5320 H   0  0  0  0  0  0  0  0  0  0  0  0
   -4.5707    1.9827    2.9221 H   0  0  0  0  0  0  0  0  0  0  0  0
   -2.4270    1.2796    1.9257 H   0  0  0  0  0  0  0  0  0  0  0  0
   -0.2327   -2.3135   -0.8378 H   0  0  0  0  0  0  0  0  0  0  0  0
    3.4015   -0.4958    1.4479 H   0  0  0  0  0  0  0  0  0  0  0  0
    5.7678   -0.2802    0.7881 H   0  0  0  0  0  0  0  0  0  0  0  0
    6.4762   -0.8065   -1.5427 H   0  0  0  0  0  0  0  0  0  0  0  0
    4.7760   -1.5634   -3.1996 H   0  0  0  0  0  0  0  0  0  0  0  0
    2.3954   -1.7869   -2.5250 H   0  0  0  0  0  0  0  0  0  0  0  0
    1.2337    0.2195    2.2259 H   0  0  0  0  0  0  0  0  0  0  0  0
    0.8868   -0.6371    4.5244 H   0  0  0  0  0  0  0  0  0  0  0  0
    0.4916   -3.0665    4.9101 H   0  0  0  0  0  0  0  0  0  0  0  0
    0.4602   -4.6275    2.9696 H   0  0  0  0  0  0  0  0  0  0  0  0
    0.8100   -3.7604    0.6687 H   0  0  0  0  0  0  0  0  0  0  0  0
  1  2  1  0  0  0  0
  1  5  1  0  0  0  0
  2  3  1  0  0  0  0
  2 11  1  0  0  0  0
  2 39  1  1  0  0  0
  3  4  1  0  0  0  0
  3 25  1  0  0  0  0
  3 40  1  6  0  0  0
  4  5  1  0  0  0  0
  5  6  1  0  0  0  0
  5 10  1  0  0  0  0
  6  7  1  0  0  0  0
  6 41  1  0  0  0  0
  6 42  1  0  0  0  0
  7  8  1  0  0  0  0
  7 43  1  0  0  0  0
  7 44  1  0  0  0  0
  8  9  1  0  0  0  0
  8 45  1  0  0  0  0
  8 46  1  0  0  0  0
  9 10  1  0  0  0  0
  9 47  1  0  0  0  0
  9 48  1  0  0  0  0
 10 49  1  0  0  0  0
 10 50  1  0  0  0  0
 11 12  1  0  0  0  0
 11 13  1  0  0  0  0
 11 19  1  0  0  0  0
 12 51  1  0  0  0  0
 13 14  2  0  0  0  0
 13 18  1  0  0  0  0
 14 15  1  0  0  0  0
 14 52  1  0  0  0  0
 15 16  2  0  0  0  0
 15 53  1  0  0  0  0
 16 17  1  0  0  0  0
 16 54  1  0  0  0  0
 17 18  2  0  0  0  0
 17 55  1  0  0  0  0
 18 56  1  0  0  0  0
 19 20  2  0  0  0  0
 19 24  1  0  0  0  0
 20 21  1  0  0  0  0
 20 57  1  0  0  0  0
 21 22  2  0  0  0  0
 21 58  1  0  0  0  0
 22 23  1  0  0  0  0
 22 59  1  0  0  0  0
 23 24  2  0  0  0  0
 23 60  1  0  0  0  0
 24 61  1  0  0  0  0
 25 26  1  0  0  0  0
 25 27  1  0  0  0  0
 25 33  1  0  0  0  0
 26 62  1  0  0  0  0
 27 28  2  0  0  0  0
 27 32  1  0  0  0  0
 28 29  1  0  0  0  0
 28 63  1  0  0  0  0
 29 30  2  0  0  0  0
 29 64  1  0  0  0  0
 30 31  1  0  0  0  0
 30 65  1  0  0  0  0
 31 32  2  0  0  0  0
 31 66  1  0  0  0  0
 32 67  1  0  0  0  0
 33 34  2  0  0  0  0
 33 38  1  0  0  0  0
 34 35  1  0  0  0  0
 34 68  1  0  0  0  0
 35 36  2  0  0  0  0
 35 69  1  0  0  0  0
 36 37  1  0  0  0  0
 36 70  1  0  0  0  0
 37 38  2  0  0  0  0
 37 71  1  0  0  0  0
 38 72  1  0  0  0  0
M  END
$$$$
