Title Card Required
 OpenBabel03192317513D

 54 59  0  0  0  0  0  0  0  0999 V2000
    0.0489    0.6615   -2.3161 O   0  0  0  0  0  0  0  0  0  0  0  0
   -1.0695    1.7341   -1.6510 P   0  0  0  0  0  0  0  0  0  0  0  0
   -0.5326    1.5974   -0.0555 O   0  0  0  0  0  0  0  0  0  0  0  0
    0.8060    1.7291    0.2079 C   0  0  0  0  0  0  0  0  0  0  0  0
    1.6641    0.6726   -0.0390 C   0  0  0  0  0  0  0  0  0  0  0  0
    1.1029   -0.5936   -0.5823 C   0  0  0  0  0  0  0  0  0  0  0  0
    0.3341   -0.5399   -1.7323 C   0  0  0  0  0  0  0  0  0  0  0  0
    1.2609    2.9573    0.7454 C   0  0  0  0  0  0  0  0  0  0  0  0
    2.5907    3.1265    1.0250 C   0  0  0  0  0  0  0  0  0  0  0  0
    3.5270    2.0943    0.7443 C   0  0  0  0  0  0  0  0  0  0  0  0
    4.9165    2.2792    0.9809 C   0  0  0  0  0  0  0  0  0  0  0  0
    5.8228    1.2988    0.6633 C   0  0  0  0  0  0  0  0  0  0  0  0
    5.3741    0.0883    0.0816 C   0  0  0  0  0  0  0  0  0  0  0  0
    4.0366   -0.1246   -0.1497 C   0  0  0  0  0  0  0  0  0  0  0  0
    3.0682    0.8622    0.1900 C   0  0  0  0  0  0  0  0  0  0  0  0
   -0.1918   -1.7082   -2.3370 C   0  0  0  0  0  0  0  0  0  0  0  0
    0.0264   -2.9314   -1.7623 C   0  0  0  0  0  0  0  0  0  0  0  0
    0.7476   -3.0395   -0.5416 C   0  0  0  0  0  0  0  0  0  0  0  0
    0.9282   -4.2971    0.0963 C   0  0  0  0  0  0  0  0  0  0  0  0
    1.5879   -4.3911    1.2961 C   0  0  0  0  0  0  0  0  0  0  0  0
    2.0882   -3.2211    1.9167 C   0  0  0  0  0  0  0  0  0  0  0  0
    1.9395   -1.9925    1.3200 C   0  0  0  0  0  0  0  0  0  0  0  0
    1.2812   -1.8629    0.0641 C   0  0  0  0  0  0  0  0  0  0  0  0
   -2.4903    0.8777   -1.4193 N   0  0  0  0  0  0  0  0  0  0  0  0
   -3.6393    1.2152   -2.2414 C   0  0  0  0  0  0  0  0  0  0  0  0
   -2.6776   -0.2634   -0.5291 C   0  0  0  0  0  0  0  0  0  0  0  0
   -3.7677   -0.0212    0.4933 C   0  0  0  0  0  0  0  0  0  0  0  0
   -4.8455   -0.8986    0.6164 C   0  0  0  0  0  0  0  0  0  0  0  0
   -5.8382   -0.6762    1.5722 C   0  0  0  0  0  0  0  0  0  0  0  0
   -5.7606    0.4335    2.4098 C   0  0  0  0  0  0  0  0  0  0  0  0
   -4.6877    1.3198    2.2883 C   0  0  0  0  0  0  0  0  0  0  0  0
   -3.6972    1.0942    1.3361 C   0  0  0  0  0  0  0  0  0  0  0  0
    0.5255    3.7410    0.9292 H   0  0  0  0  0  0  0  0  0  0  0  0
    2.9527    4.0652    1.4489 H   0  0  0  0  0  0  0  0  0  0  0  0
    5.2497    3.2254    1.4126 H   0  0  0  0  0  0  0  0  0  0  0  0
    6.8872    1.4532    0.8451 H   0  0  0  0  0  0  0  0  0  0  0  0
    6.0979   -0.6806   -0.1926 H   0  0  0  0  0  0  0  0  0  0  0  0
    3.7056   -1.0560   -0.6092 H   0  0  0  0  0  0  0  0  0  0  0  0
   -0.7625   -1.5927   -3.2593 H   0  0  0  0  0  0  0  0  0  0  0  0
   -0.3679   -3.8393   -2.2234 H   0  0  0  0  0  0  0  0  0  0  0  0
    0.5215   -5.1884   -0.3861 H   0  0  0  0  0  0  0  0  0  0  0  0
    1.7173   -5.3609    1.7786 H   0  0  0  0  0  0  0  0  0  0  0  0
    2.5907   -3.2948    2.8823 H   0  0  0  0  0  0  0  0  0  0  0  0
    2.3189   -1.0978    1.8139 H   0  0  0  0  0  0  0  0  0  0  0  0
   -3.9058    0.3836   -2.9161 H   0  0  0  0  0  0  0  0  0  0  0  0
   -4.5145    1.4439   -1.6127 H   0  0  0  0  0  0  0  0  0  0  0  0
   -3.4122    2.0974   -2.8560 H   0  0  0  0  0  0  0  0  0  0  0  0
   -2.9214   -1.1632   -1.1218 H   0  0  0  0  0  0  0  0  0  0  0  0
   -1.7301   -0.4592   -0.0087 H   0  0  0  0  0  0  0  0  0  0  0  0
   -4.9076   -1.7676   -0.0434 H   0  0  0  0  0  0  0  0  0  0  0  0
   -6.6751   -1.3711    1.6587 H   0  0  0  0  0  0  0  0  0  0  0  0
   -6.5353    0.6103    3.1576 H   0  0  0  0  0  0  0  0  0  0  0  0
   -4.6235    2.1895    2.9445 H   0  0  0  0  0  0  0  0  0  0  0  0
   -2.8509    1.7783    1.2341 H   0  0  0  0  0  0  0  0  0  0  0  0
  1  2  1  0  0  0  0
  1  7  1  0  0  0  0
  2  3  1  0  0  0  0
  2 24  1  0  0  0  0
  3  4  1  0  0  0  0
  4  5  2  0  0  0  0
  4  8  1  0  0  0  0
  5  6  1  0  0  0  0
  5 15  1  0  0  0  0
  6  7  2  0  0  0  0
  6 23  1  0  0  0  0
  7 16  1  0  0  0  0
  8  9  2  0  0  0  0
  8 33  1  0  0  0  0
  9 10  1  0  0  0  0
  9 34  1  0  0  0  0
 10 11  2  0  0  0  0
 10 15  1  0  0  0  0
 11 12  1  0  0  0  0
 11 35  1  0  0  0  0
 12 13  2  0  0  0  0
 12 36  1  0  0  0  0
 13 14  1  0  0  0  0
 13 37  1  0  0  0  0
 14 15  2  0  0  0  0
 14 38  1  0  0  0  0
 16 17  2  0  0  0  0
 16 39  1  0  0  0  0
 17 18  1  0  0  0  0
 17 40  1  0  0  0  0
 18 19  2  0  0  0  0
 18 23  1  0  0  0  0
 19 20  1  0  0  0  0
 19 41  1  0  0  0  0
 20 21  2  0  0  0  0
 20 42  1  0  0  0  0
 21 22  1  0  0  0  0
 21 43  1  0  0  0  0
 22 23  2  0  0  0  0
 22 44  1  0  0  0  0
 24 25  1  0  0  0  0
 24 26  1  0  0  0  0
 25 45  1  0  0  0  0
 25 46  1  0  0  0  0
 25 47  1  0  0  0  0
 26 27  1  0  0  0  0
 26 48  1  0  0  0  0
 26 49  1  0  0  0  0
 27 28  2  0  0  0  0
 27 32  1  0  0  0  0
 28 29  1  0  0  0  0
 28 50  1  0  0  0  0
 29 30  2  0  0  0  0
 29 51  1  0  0  0  0
 30 31  1  0  0  0  0
 30 52  1  0  0  0  0
 31 32  2  0  0  0  0
 31 53  1  0  0  0  0
 32 54  1  0  0  0  0
M  END
$$$$
