Title Card Required
 OpenBabel03192317543D

 34 34  0  0  1  0  0  0  0  0999 V2000
    0.7056    0.9298   -0.1027 C   0  0  1  0  0  0  0  0  0  0  0  0
   -0.7552    1.4016   -0.0294 C   0  0  1  0  0  0  0  0  0  0  0  0
   -0.8979    2.7989   -0.6320 C   0  0  0  0  0  0  0  0  0  0  0  0
    0.0323    3.7960    0.0578 C   0  0  0  0  0  0  0  0  0  0  0  0
    1.4855    3.3267   -0.0003 C   0  0  0  0  0  0  0  0  0  0  0  0
    1.6346    1.9270    0.5917 C   0  0  0  0  0  0  0  0  0  0  0  0
    1.3064   -2.7365   -0.8837 C   0  0  0  0  0  0  0  0  0  0  0  0
    2.0764   -1.4028    0.0002 S   0  0  0  0  0  0  0  0  0  0  0  0
    2.8957   -0.6575   -0.9457 O   0  0  0  0  0  0  0  0  0  0  0  0
    2.6390   -1.9510    1.2197 O   0  0  0  0  0  0  0  0  0  0  0  0
    0.8034   -0.4230    0.4184 N   0  0  0  0  0  0  0  0  0  0  0  0
   -3.9443   -0.8097   -0.0132 C   0  0  0  0  0  0  0  0  0  0  0  0
   -2.1750   -0.8981    0.1255 S   0  0  0  0  0  0  0  0  0  0  0  0
   -1.7462   -2.0705   -0.6220 O   0  0  0  0  0  0  0  0  0  0  0  0
   -1.8460   -0.7378    1.5357 O   0  0  0  0  0  0  0  0  0  0  0  0
   -1.6782    0.4758   -0.6866 N   0  0  0  0  0  0  0  0  0  0  0  0
    0.9935    0.8785   -1.1675 H   0  0  0  0  0  0  0  0  0  0  0  0
   -1.0536    1.4400    1.0306 H   0  0  0  0  0  0  0  0  0  0  0  0
   -0.6529    2.7469   -1.7079 H   0  0  0  0  0  0  0  0  0  0  0  0
   -1.9490    3.1122   -0.5566 H   0  0  0  0  0  0  0  0  0  0  0  0
   -0.0756    4.7890   -0.4026 H   0  0  0  0  0  0  0  0  0  0  0  0
   -0.2741    3.9008    1.1127 H   0  0  0  0  0  0  0  0  0  0  0  0
    1.8217    3.3107   -1.0512 H   0  0  0  0  0  0  0  0  0  0  0  0
    2.1406    4.0343    0.5280 H   0  0  0  0  0  0  0  0  0  0  0  0
    1.3888    1.9420    1.6684 H   0  0  0  0  0  0  0  0  0  0  0  0
    2.6656    1.5592    0.4920 H   0  0  0  0  0  0  0  0  0  0  0  0
    0.8051   -2.3255   -1.7659 H   0  0  0  0  0  0  0  0  0  0  0  0
    2.1129   -3.4252   -1.1625 H   0  0  0  0  0  0  0  0  0  0  0  0
    0.5726   -3.2117   -0.2243 H   0  0  0  0  0  0  0  0  0  0  0  0
    0.4860   -0.5777    1.3752 H   0  0  0  0  0  0  0  0  0  0  0  0
   -4.2096   -0.8216   -1.0759 H   0  0  0  0  0  0  0  0  0  0  0  0
   -4.3386   -1.6971    0.4963 H   0  0  0  0  0  0  0  0  0  0  0  0
   -4.2819    0.1094    0.4766 H   0  0  0  0  0  0  0  0  0  0  0  0
   -1.3915    0.2125   -1.6297 H   0  0  0  0  0  0  0  0  0  0  0  0
  1  2  1  0  0  0  0
  1  6  1  0  0  0  0
  1 11  1  0  0  0  0
  1 17  1  6  0  0  0
  2  3  1  0  0  0  0
  2 16  1  0  0  0  0
  2 18  1  1  0  0  0
  3  4  1  0  0  0  0
  3 19  1  0  0  0  0
  3 20  1  0  0  0  0
  4  5  1  0  0  0  0
  4 21  1  0  0  0  0
  4 22  1  0  0  0  0
  5  6  1  0  0  0  0
  5 23  1  0  0  0  0
  5 24  1  0  0  0  0
  6 25  1  0  0  0  0
  6 26  1  0  0  0  0
  7  8  1  0  0  0  0
  7 27  1  0  0  0  0
  7 28  1  0  0  0  0
  7 29  1  0  0  0  0
  8  9  2  0  0  0  0
  8 10  2  0  0  0  0
  8 11  1  0  0  0  0
 11 30  1  0  0  0  0
 12 13  1  0  0  0  0
 12 31  1  0  0  0  0
 12 32  1  0  0  0  0
 12 33  1  0  0  0  0
 13 14  2  0  0  0  0
 13 15  2  0  0  0  0
 13 16  1  0  0  0  0
 16 34  1  0  0  0  0
M  END
$$$$
