Title Card Required
 OpenBabel03192317463D

 73 78  0  0  1  0  0  0  0  0999 V2000
   -1.0811   -3.6654   -2.8020 C   0  0  0  0  0  0  0  0  0  0  0  0
   -2.5645   -3.2543   -2.6927 C   0  0  0  0  0  0  0  0  0  0  0  0
   -2.0873   -2.0215   -2.0305 C   0  0  0  0  0  0  0  0  0  0  0  0
   -0.7578   -2.4376   -2.0035 C   0  0  0  0  0  0  0  0  0  0  0  0
   -0.3895   -4.5184   -3.2718 O   0  0  0  0  0  0  0  0  0  0  0  0
   -3.6518   -3.6813   -2.9571 O   0  0  0  0  0  0  0  0  0  0  0  0
    0.4730   -2.0881   -1.6233 N   0  0  0  0  0  0  0  0  0  0  0  0
    0.9084   -1.1625   -0.5720 C   0  0  1  0  0  0  0  0  0  0  0  0
   -0.1515   -2.3525    1.4099 N   0  0  2  0  0  0  0  0  0  0  0  0
   -0.1146   -1.1423    0.5860 C   0  0  1  0  0  0  0  0  0  0  0  0
   -0.0825    0.1139    1.4775 C   0  0  0  0  0  0  0  0  0  0  0  0
   -0.7621   -0.2851    2.8006 C   0  0  1  0  0  0  0  0  0  0  0  0
   -2.0243   -1.1270    2.4834 C   0  0  1  0  0  0  0  0  0  0  0  0
   -1.5289   -2.4812    1.9021 C   0  0  0  0  0  0  0  0  0  0  0  0
    0.2114   -1.1760    3.5785 C   0  0  0  0  0  0  0  0  0  0  0  0
    0.7315   -2.2433    2.5847 C   0  0  0  0  0  0  0  0  0  0  0  0
   -2.9588   -1.2198    3.6576 C   0  0  0  0  0  0  0  0  0  0  0  0
   -3.4779   -2.3229    4.1965 C   0  0  0  0  0  0  0  0  0  0  0  0
    4.8884   -2.3305    0.7140 N   0  0  0  0  0  0  0  0  0  0  0  0
    3.9669   -3.2093    0.4237 C   0  0  0  0  0  0  0  0  0  0  0  0
    2.6631   -2.8635   -0.0152 C   0  0  0  0  0  0  0  0  0  0  0  0
    2.3136   -1.5403   -0.1533 C   0  0  0  0  0  0  0  0  0  0  0  0
    3.3009   -0.5459    0.1452 C   0  0  0  0  0  0  0  0  0  0  0  0
    3.0856    0.8491    0.0363 C   0  0  0  0  0  0  0  0  0  0  0  0
    4.0870    1.7515    0.3397 C   0  0  0  0  0  0  0  0  0  0  0  0
    5.3591    1.2866    0.7711 C   0  0  0  0  0  0  0  0  0  0  0  0
    5.5873   -0.0623    0.8843 C   0  0  0  0  0  0  0  0  0  0  0  0
    4.5804   -1.0138    0.5793 C   0  0  0  0  0  0  0  0  0  0  0  0
    3.7842    3.0585    0.2019 O   0  0  0  0  0  0  0  0  0  0  0  0
    4.7611    4.0212    0.5039 C   0  0  0  0  0  0  0  0  0  0  0  0
   -2.8707   -1.0123   -1.5479 N   0  0  0  0  0  0  0  0  0  0  0  0
   -2.4699    0.2988   -1.3241 C   0  0  0  0  0  0  0  0  0  0  0  0
   -1.3210    0.8171   -1.9376 C   0  0  0  0  0  0  0  0  0  0  0  0
   -0.8946    2.1054   -1.6311 C   0  0  0  0  0  0  0  0  0  0  0  0
   -1.5909    2.9087   -0.7299 C   0  0  0  0  0  0  0  0  0  0  0  0
   -2.7438    2.3903   -0.1453 C   0  0  0  0  0  0  0  0  0  0  0  0
   -3.1935    1.1081   -0.4394 C   0  0  0  0  0  0  0  0  0  0  0  0
   -3.4563    3.1618    0.9350 C   0  0  0  0  0  0  0  0  0  0  0  0
   -3.2001    4.4651    0.8669 F   0  0  0  0  0  0  0  0  0  0  0  0
   -4.7763    2.9943    0.8691 F   0  0  0  0  0  0  0  0  0  0  0  0
   -3.0674    2.7388    2.1443 F   0  0  0  0  0  0  0  0  0  0  0  0
    0.3315    2.6528   -2.3190 C   0  0  0  0  0  0  0  0  0  0  0  0
    1.1873    1.6716   -2.6291 F   0  0  0  0  0  0  0  0  0  0  0  0
    0.0221    3.2776   -3.4532 F   0  0  0  0  0  0  0  0  0  0  0  0
    0.9762    3.5221   -1.5443 F   0  0  0  0  0  0  0  0  0  0  0  0
    1.1867   -2.7130   -1.9898 H   0  0  0  0  0  0  0  0  0  0  0  0
    0.9343   -0.1457   -0.9855 H   0  0  0  0  0  0  0  0  0  0  0  0
   -1.0847   -1.1284    0.0778 H   0  0  0  0  0  0  0  0  0  0  0  0
    0.9479    0.4503    1.6780 H   0  0  0  0  0  0  0  0  0  0  0  0
   -0.6132    0.9437    0.9838 H   0  0  0  0  0  0  0  0  0  0  0  0
   -1.0395    0.6080    3.3790 H   0  0  0  0  0  0  0  0  0  0  0  0
   -2.5765   -0.5776    1.6967 H   0  0  0  0  0  0  0  0  0  0  0  0
   -1.5305   -3.2626    2.6761 H   0  0  0  0  0  0  0  0  0  0  0  0
   -2.1836   -2.8253    1.0860 H   0  0  0  0  0  0  0  0  0  0  0  0
   -0.3076   -1.6368    4.4332 H   0  0  0  0  0  0  0  0  0  0  0  0
    1.0447   -0.5822    3.9817 H   0  0  0  0  0  0  0  0  0  0  0  0
    0.7971   -3.2358    3.0543 H   0  0  0  0  0  0  0  0  0  0  0  0
    1.7426   -1.9890    2.2474 H   0  0  0  0  0  0  0  0  0  0  0  0
   -3.2413   -0.2495    4.0846 H   0  0  0  0  0  0  0  0  0  0  0  0
   -4.1622   -2.2604    5.0444 H   0  0  0  0  0  0  0  0  0  0  0  0
   -3.2576   -3.3230    3.8170 H   0  0  0  0  0  0  0  0  0  0  0  0
    4.2306   -4.2658    0.5386 H   0  0  0  0  0  0  0  0  0  0  0  0
    1.9270   -3.6498   -0.1920 H   0  0  0  0  0  0  0  0  0  0  0  0
    2.1337    1.2641   -0.2899 H   0  0  0  0  0  0  0  0  0  0  0  0
    6.1559    1.9895    1.0099 H   0  0  0  0  0  0  0  0  0  0  0  0
    6.5524   -0.4500    1.2115 H   0  0  0  0  0  0  0  0  0  0  0  0
    5.0788    3.9606    1.5578 H   0  0  0  0  0  0  0  0  0  0  0  0
    5.6454    3.9194   -0.1462 H   0  0  0  0  0  0  0  0  0  0  0  0
    4.2994    4.9985    0.3261 H   0  0  0  0  0  0  0  0  0  0  0  0
   -3.8603   -1.2326   -1.4830 H   0  0  0  0  0  0  0  0  0  0  0  0
   -0.7564    0.2052   -2.6439 H   0  0  0  0  0  0  0  0  0  0  0  0
   -1.2370    3.9082   -0.4782 H   0  0  0  0  0  0  0  0  0  0  0  0
   -4.0889    0.7188    0.0496 H   0  0  0  0  0  0  0  0  0  0  0  0
  1  2  1  0  0  0  0
  1  4  1  0  0  0  0
  1  5  2  0  0  0  0
  2  3  1  0  0  0  0
  2  6  2  0  0  0  0
  3  4  2  0  0  0  0
  3 31  1  0  0  0  0
  4  7  1  0  0  0  0
  7  8  1  0  0  0  0
  7 46  1  0  0  0  0
  8 10  1  0  0  0  0
  8 22  1  0  0  0  0
  8 47  1  6  0  0  0
  9 10  1  0  0  0  0
  9 14  1  1  0  0  0
  9 16  1  0  0  0  0
 10 11  1  0  0  0  0
 10 48  1  6  0  0  0
 11 12  1  0  0  0  0
 11 49  1  0  0  0  0
 11 50  1  0  0  0  0
 12 13  1  0  0  0  0
 12 15  1  0  0  0  0
 12 51  1  1  0  0  0
 13 14  1  0  0  0  0
 13 17  1  0  0  0  0
 13 52  1  6  0  0  0
 14 53  1  0  0  0  0
 14 54  1  0  0  0  0
 15 16  1  0  0  0  0
 15 55  1  0  0  0  0
 15 56  1  0  0  0  0
 16 57  1  0  0  0  0
 16 58  1  0  0  0  0
 17 18  2  0  0  0  0
 17 59  1  0  0  0  0
 18 60  1  0  0  0  0
 18 61  1  0  0  0  0
 19 20  2  0  0  0  0
 19 28  1  0  0  0  0
 20 21  1  0  0  0  0
 20 62  1  0  0  0  0
 21 22  2  0  0  0  0
 21 63  1  0  0  0  0
 22 23  1  0  0  0  0
 23 24  2  0  0  0  0
 23 28  1  0  0  0  0
 24 25  1  0  0  0  0
 24 64  1  0  0  0  0
 25 26  2  0  0  0  0
 25 29  1  0  0  0  0
 26 27  1  0  0  0  0
 26 65  1  0  0  0  0
 27 28  2  0  0  0  0
 27 66  1  0  0  0  0
 29 30  1  0  0  0  0
 30 67  1  0  0  0  0
 30 68  1  0  0  0  0
 30 69  1  0  0  0  0
 31 32  1  0  0  0  0
 31 70  1  0  0  0  0
 32 33  2  0  0  0  0
 32 37  1  0  0  0  0
 33 34  1  0  0  0  0
 33 71  1  0  0  0  0
 34 35  2  0  0  0  0
 34 42  1  0  0  0  0
 35 36  1  0  0  0  0
 35 72  1  0  0  0  0
 36 37  2  0  0  0  0
 36 38  1  0  0  0  0
 37 73  1  0  0  0  0
 38 39  1  0  0  0  0
 38 40  1  0  0  0  0
 38 41  1  0  0  0  0
 42 43  1  0  0  0  0
 42 44  1  0  0  0  0
 42 45  1  0  0  0  0
M  END
$$$$
