Title Card Required
 OpenBabel03192317443D

 52 54  0  0  1  0  0  0  0  0999 V2000
    2.3659   -2.6588   -0.7972 C   0  0  0  0  0  0  0  0  0  0  0  0
    1.1827   -3.6432   -0.6986 C   0  0  0  0  0  0  0  0  0  0  0  0
    0.3254   -2.4683   -0.4512 C   0  0  0  0  0  0  0  0  0  0  0  0
    1.3936   -1.5759   -0.4233 C   0  0  0  0  0  0  0  0  0  0  0  0
    3.5387   -2.6843   -1.0357 O   0  0  0  0  0  0  0  0  0  0  0  0
    0.9800   -4.8225   -0.7584 O   0  0  0  0  0  0  0  0  0  0  0  0
    1.5840   -0.2690   -0.2235 N   0  0  0  0  0  0  0  0  0  0  0  0
    2.8948    0.3596   -0.3832 C   0  0  2  0  0  0  0  0  0  0  0  0
    3.7271    0.2402    0.9153 C   0  0  2  0  0  0  0  0  0  0  0  0
    3.0121    1.0283    2.0207 C   0  0  0  0  0  0  0  0  0  0  0  0
    2.8631    2.5033    1.6461 C   0  0  0  0  0  0  0  0  0  0  0  0
    2.0958    2.6575    0.3312 C   0  0  0  0  0  0  0  0  0  0  0  0
    2.7259    1.8240   -0.7880 C   0  0  0  0  0  0  0  0  0  0  0  0
    5.0848    0.7234    0.6873 N   0  0  0  0  0  0  0  0  0  0  0  0
    5.7666   -0.0059   -0.3709 C   0  0  0  0  0  0  0  0  0  0  0  0
    5.8837    0.7430    1.8970 C   0  0  0  0  0  0  0  0  0  0  0  0
   -1.0132   -2.4544   -0.2068 N   0  0  0  0  0  0  0  0  0  0  0  0
   -1.8400   -1.3406   -0.2105 C   0  0  0  0  0  0  0  0  0  0  0  0
   -1.4568   -0.1614   -0.8731 C   0  0  0  0  0  0  0  0  0  0  0  0
   -2.2725    0.9610   -0.8126 C   0  0  0  0  0  0  0  0  0  0  0  0
   -3.5038    0.9338   -0.1580 C   0  0  0  0  0  0  0  0  0  0  0  0
   -3.8968   -0.2541    0.4498 C   0  0  0  0  0  0  0  0  0  0  0  0
   -3.0773   -1.3797    0.4427 C   0  0  0  0  0  0  0  0  0  0  0  0
   -5.2328   -0.3581    1.1428 C   0  0  0  0  0  0  0  0  0  0  0  0
   -5.8613    0.8141    1.1851 F   0  0  0  0  0  0  0  0  0  0  0  0
   -6.0295   -1.2256    0.5179 F   0  0  0  0  0  0  0  0  0  0  0  0
   -5.0909   -0.7916    2.3965 F   0  0  0  0  0  0  0  0  0  0  0  0
   -1.8187    2.2546   -1.4412 C   0  0  0  0  0  0  0  0  0  0  0  0
   -0.7285    2.0902   -2.1916 F   0  0  0  0  0  0  0  0  0  0  0  0
   -2.7678    2.7871   -2.2067 F   0  0  0  0  0  0  0  0  0  0  0  0
   -1.5196    3.1560   -0.5007 F   0  0  0  0  0  0  0  0  0  0  0  0
    0.8422    0.2807    0.1943 H   0  0  0  0  0  0  0  0  0  0  0  0
    3.3921   -0.1999   -1.1835 H   0  0  0  0  0  0  0  0  0  0  0  0
    3.7475   -0.8402    1.1920 H   0  0  0  0  0  0  0  0  0  0  0  0
    2.0162    0.5787    2.1683 H   0  0  0  0  0  0  0  0  0  0  0  0
    3.5282    0.9093    2.9826 H   0  0  0  0  0  0  0  0  0  0  0  0
    2.3531    3.0522    2.4516 H   0  0  0  0  0  0  0  0  0  0  0  0
    3.8656    2.9454    1.5306 H   0  0  0  0  0  0  0  0  0  0  0  0
    1.0404    2.3616    0.4826 H   0  0  0  0  0  0  0  0  0  0  0  0
    2.0545    3.7134    0.0268 H   0  0  0  0  0  0  0  0  0  0  0  0
    3.7293    2.2175   -1.0074 H   0  0  0  0  0  0  0  0  0  0  0  0
    2.1261    1.8863   -1.7085 H   0  0  0  0  0  0  0  0  0  0  0  0
    6.8215    0.2976   -0.3939 H   0  0  0  0  0  0  0  0  0  0  0  0
    5.7163   -1.1056   -0.2369 H   0  0  0  0  0  0  0  0  0  0  0  0
    5.3464    0.2304   -1.3582 H   0  0  0  0  0  0  0  0  0  0  0  0
    6.9110    1.0384    1.6459 H   0  0  0  0  0  0  0  0  0  0  0  0
    5.5011    1.4800    2.6157 H   0  0  0  0  0  0  0  0  0  0  0  0
    5.9274   -0.2459    2.4031 H   0  0  0  0  0  0  0  0  0  0  0  0
   -1.4322   -3.3672   -0.0566 H   0  0  0  0  0  0  0  0  0  0  0  0
   -0.5357   -0.1322   -1.4538 H   0  0  0  0  0  0  0  0  0  0  0  0
   -4.1457    1.8143   -0.1303 H   0  0  0  0  0  0  0  0  0  0  0  0
   -3.3945   -2.2883    0.9589 H   0  0  0  0  0  0  0  0  0  0  0  0
  1  2  1  0  0  0  0
  1  4  1  0  0  0  0
  1  5  2  0  0  0  0
  2  3  1  0  0  0  0
  2  6  2  0  0  0  0
  3  4  2  0  0  0  0
  3 17  1  0  0  0  0
  4  7  1  0  0  0  0
  7  8  1  0  0  0  0
  7 32  1  0  0  0  0
  8  9  1  0  0  0  0
  8 13  1  0  0  0  0
  8 33  1  6  0  0  0
  9 10  1  0  0  0  0
  9 14  1  0  0  0  0
  9 34  1  1  0  0  0
 10 11  1  0  0  0  0
 10 35  1  0  0  0  0
 10 36  1  0  0  0  0
 11 12  1  0  0  0  0
 11 37  1  0  0  0  0
 11 38  1  0  0  0  0
 12 13  1  0  0  0  0
 12 39  1  0  0  0  0
 12 40  1  0  0  0  0
 13 41  1  0  0  0  0
 13 42  1  0  0  0  0
 14 15  1  0  0  0  0
 14 16  1  0  0  0  0
 15 43  1  0  0  0  0
 15 44  1  0  0  0  0
 15 45  1  0  0  0  0
 16 46  1  0  0  0  0
 16 47  1  0  0  0  0
 16 48  1  0  0  0  0
 17 18  1  0  0  0  0
 17 49  1  0  0  0  0
 18 19  2  0  0  0  0
 18 23  1  0  0  0  0
 19 20  1  0  0  0  0
 19 50  1  0  0  0  0
 20 21  2  0  0  0  0
 20 28  1  0  0  0  0
 21 22  1  0  0  0  0
 21 51  1  0  0  0  0
 22 23  2  0  0  0  0
 22 24  1  0  0  0  0
 23 52  1  0  0  0  0
 24 25  1  0  0  0  0
 24 26  1  0  0  0  0
 24 27  1  0  0  0  0
 28 29  1  0  0  0  0
 28 30  1  0  0  0  0
 28 31  1  0  0  0  0
M  END
$$$$
