Title Card Required
 OpenBabel03192317513D

102109  0  0  0  0  0  0  0  0999 V2000
    6.8450   -3.1268    0.8682 F   0  0  0  0  0  0  0  0  0  0  0  0
    7.3076   -1.9060    1.1291 C   0  0  0  0  0  0  0  0  0  0  0  0
    7.8091   -1.9238    2.3652 F   0  0  0  0  0  0  0  0  0  0  0  0
    8.3232   -1.6657    0.2982 F   0  0  0  0  0  0  0  0  0  0  0  0
    6.2309   -0.8598    0.9909 C   0  0  0  0  0  0  0  0  0  0  0  0
    4.8878   -1.2129    1.1020 C   0  0  0  0  0  0  0  0  0  0  0  0
    3.8923   -0.2319    1.0264 C   0  0  0  0  0  0  0  0  0  0  0  0
    4.2647    1.1039    0.8568 C   0  0  0  0  0  0  0  0  0  0  0  0
    5.6122    1.4417    0.7313 C   0  0  0  0  0  0  0  0  0  0  0  0
    6.6047    0.4689    0.7961 C   0  0  0  0  0  0  0  0  0  0  0  0
    5.9625    2.8820    0.4688 C   0  0  0  0  0  0  0  0  0  0  0  0
    5.3424    3.7006    1.3162 F   0  0  0  0  0  0  0  0  0  0  0  0
    7.2703    3.1068    0.5608 F   0  0  0  0  0  0  0  0  0  0  0  0
    5.5824    3.2487   -0.7665 F   0  0  0  0  0  0  0  0  0  0  0  0
    2.1289   -0.7796    1.1064 P   0  0  0  0  0  0  0  0  0  0  0  0
    1.7637   -0.9144   -0.7067 C   0  0  0  0  0  0  0  0  0  0  0  0
    2.6873   -0.5814   -1.7098 C   0  0  0  0  0  0  0  0  0  0  0  0
    2.4207   -0.8858   -3.0413 C   0  0  0  0  0  0  0  0  0  0  0  0
    1.2289   -1.5057   -3.4131 C   0  0  0  0  0  0  0  0  0  0  0  0
    0.3192   -1.8463   -2.4214 C   0  0  0  0  0  0  0  0  0  0  0  0
    0.5901   -1.5788   -1.0779 C   0  0  0  0  0  0  0  0  0  0  0  0
   -0.9492   -2.5786   -2.7755 C   0  0  0  0  0  0  0  0  0  0  0  0
   -1.0008   -2.8915   -4.0675 F   0  0  0  0  0  0  0  0  0  0  0  0
   -1.0510   -3.7125   -2.0769 F   0  0  0  0  0  0  0  0  0  0  0  0
   -2.0400   -1.8547   -2.4997 F   0  0  0  0  0  0  0  0  0  0  0  0
    3.4330   -0.6080   -4.1224 C   0  0  0  0  0  0  0  0  0  0  0  0
    4.5219    0.0014   -3.6422 F   0  0  0  0  0  0  0  0  0  0  0  0
    3.8305   -1.7333   -4.7133 F   0  0  0  0  0  0  0  0  0  0  0  0
    2.9267    0.1754   -5.0781 F   0  0  0  0  0  0  0  0  0  0  0  0
    1.3802    0.7511    1.8372 C   0  0  0  0  0  0  0  0  0  0  0  0
    1.7600    0.9007    3.1839 C   0  0  0  0  0  0  0  0  0  0  0  0
    1.2748    1.9415    3.9604 C   0  0  0  0  0  0  0  0  0  0  0  0
    0.3817    2.8627    3.4142 C   0  0  0  0  0  0  0  0  0  0  0  0
   -0.1207    3.8447    4.2040 O   0  0  0  0  0  0  0  0  0  0  0  0
   -1.3094    4.4223    3.7024 C   0  0  0  0  0  0  0  0  0  0  0  0
   -1.1232    4.7774    2.2422 C   0  0  0  0  0  0  0  0  0  0  0  0
   -0.8670    3.6053    1.4926 O   0  0  0  0  0  0  0  0  0  0  0  0
    0.0036    2.7381    2.0703 C   0  0  0  0  0  0  0  0  0  0  0  0
    0.4802    1.6747    1.2864 C   0  0  0  0  0  0  0  0  0  0  0  0
   -0.0627    1.5687   -0.0967 C   0  0  0  0  0  0  0  0  0  0  0  0
    0.7438    1.9615   -1.1630 C   0  0  0  0  0  0  0  0  0  0  0  0
    1.9712    2.4943   -0.9053 O   0  0  0  0  0  0  0  0  0  0  0  0
    2.3943    3.3820   -1.9280 C   0  0  0  0  0  0  0  0  0  0  0  0
    2.3698    2.6552   -3.2537 C   0  0  0  0  0  0  0  0  0  0  0  0
    1.0718    2.1608   -3.5414 O   0  0  0  0  0  0  0  0  0  0  0  0
    0.3014    1.8104   -2.4872 C   0  0  0  0  0  0  0  0  0  0  0  0
   -0.9713    1.2890   -2.7223 C   0  0  0  0  0  0  0  0  0  0  0  0
   -1.7964    0.9420   -1.6573 C   0  0  0  0  0  0  0  0  0  0  0  0
   -1.3614    1.0863   -0.3350 C   0  0  0  0  0  0  0  0  0  0  0  0
   -2.3956    0.7131    1.1568 P   0  0  0  0  0  0  0  0  0  0  0  0
   -4.1036    0.8925    0.5030 C   0  0  0  0  0  0  0  0  0  0  0  0
   -5.1439    0.0482    0.9129 C   0  0  0  0  0  0  0  0  0  0  0  0
   -6.4592    0.3147    0.5392 C   0  0  0  0  0  0  0  0  0  0  0  0
   -6.7747    1.4316   -0.2310 C   0  0  0  0  0  0  0  0  0  0  0  0
   -5.7454    2.2832   -0.6193 C   0  0  0  0  0  0  0  0  0  0  0  0
   -4.4255    2.0261   -0.2539 C   0  0  0  0  0  0  0  0  0  0  0  0
   -6.0336    3.5025   -1.4567 C   0  0  0  0  0  0  0  0  0  0  0  0
   -7.3391    3.7538   -1.5362 F   0  0  0  0  0  0  0  0  0  0  0  0
   -5.4403    4.5857   -0.9491 F   0  0  0  0  0  0  0  0  0  0  0  0
   -5.5764    3.3553   -2.7015 F   0  0  0  0  0  0  0  0  0  0  0  0
   -7.5535   -0.6410    0.9425 C   0  0  0  0  0  0  0  0  0  0  0  0
   -7.2775   -1.2383    2.1017 F   0  0  0  0  0  0  0  0  0  0  0  0
   -8.7234   -0.0154    1.0714 F   0  0  0  0  0  0  0  0  0  0  0  0
   -7.7167   -1.6022    0.0319 F   0  0  0  0  0  0  0  0  0  0  0  0
   -2.1523   -1.1177    1.2586 C   0  0  0  0  0  0  0  0  0  0  0  0
   -2.7700   -2.0668    0.4378 C   0  0  0  0  0  0  0  0  0  0  0  0
   -2.4304   -3.4145    0.5507 C   0  0  0  0  0  0  0  0  0  0  0  0
   -1.4418   -3.8303    1.4398 C   0  0  0  0  0  0  0  0  0  0  0  0
   -0.8214   -2.8830    2.2520 C   0  0  0  0  0  0  0  0  0  0  0  0
   -1.1924   -1.5418    2.1869 C   0  0  0  0  0  0  0  0  0  0  0  0
    0.2487   -3.3434    3.2103 C   0  0  0  0  0  0  0  0  0  0  0  0
   -0.2291   -4.2608    4.0550 F   0  0  0  0  0  0  0  0  0  0  0  0
    1.2681   -3.9079    2.5635 F   0  0  0  0  0  0  0  0  0  0  0  0
    0.7315   -2.3375    3.9381 F   0  0  0  0  0  0  0  0  0  0  0  0
   -3.1840   -4.4501   -0.2473 C   0  0  0  0  0  0  0  0  0  0  0  0
   -3.7046   -3.9342   -1.3588 F   0  0  0  0  0  0  0  0  0  0  0  0
   -2.4039   -5.4743   -0.5847 F   0  0  0  0  0  0  0  0  0  0  0  0
   -4.1956   -4.9465    0.4700 F   0  0  0  0  0  0  0  0  0  0  0  0
    4.6143   -2.2608    1.2457 H   0  0  0  0  0  0  0  0  0  0  0  0
    3.4984    1.8811    0.7927 H   0  0  0  0  0  0  0  0  0  0  0  0
    7.6564    0.7398    0.6955 H   0  0  0  0  0  0  0  0  0  0  0  0
    3.6305   -0.0949   -1.4586 H   0  0  0  0  0  0  0  0  0  0  0  0
    1.0267   -1.7450   -4.4579 H   0  0  0  0  0  0  0  0  0  0  0  0
   -0.1165   -1.9159   -0.3147 H   0  0  0  0  0  0  0  0  0  0  0  0
    2.4389    0.1739    3.6374 H   0  0  0  0  0  0  0  0  0  0  0  0
    1.5529    2.0531    5.0085 H   0  0  0  0  0  0  0  0  0  0  0  0
   -1.5170    5.3130    4.3074 H   0  0  0  0  0  0  0  0  0  0  0  0
   -2.1442    3.7075    3.8067 H   0  0  0  0  0  0  0  0  0  0  0  0
   -0.2800    5.4809    2.1345 H   0  0  0  0  0  0  0  0  0  0  0  0
   -2.0274    5.2339    1.8210 H   0  0  0  0  0  0  0  0  0  0  0  0
    3.4128    3.7007   -1.6787 H   0  0  0  0  0  0  0  0  0  0  0  0
    1.7277    4.2611   -1.9471 H   0  0  0  0  0  0  0  0  0  0  0  0
    3.0900    1.8258   -3.2158 H   0  0  0  0  0  0  0  0  0  0  0  0
    2.6500    3.3174   -4.0829 H   0  0  0  0  0  0  0  0  0  0  0  0
   -1.2956    1.1701   -3.7568 H   0  0  0  0  0  0  0  0  0  0  0  0
   -2.7928    0.5514   -1.8694 H   0  0  0  0  0  0  0  0  0  0  0  0
   -4.9397   -0.8214    1.5415 H   0  0  0  0  0  0  0  0  0  0  0  0
   -7.8080    1.6429   -0.5071 H   0  0  0  0  0  0  0  0  0  0  0  0
   -3.6392    2.7225   -0.5580 H   0  0  0  0  0  0  0  0  0  0  0  0
   -3.5119   -1.7672   -0.3055 H   0  0  0  0  0  0  0  0  0  0  0  0
   -1.1621   -4.8840    1.4986 H   0  0  0  0  0  0  0  0  0  0  0  0
   -0.7132   -0.8165    2.8494 H   0  0  0  0  0  0  0  0  0  0  0  0
  1  2  1  0  0  0  0
  2  3  1  0  0  0  0
  2  4  1  0  0  0  0
  2  5  1  0  0  0  0
  5  6  2  0  0  0  0
  5 10  1  0  0  0  0
  6  7  1  0  0  0  0
  6 79  1  0  0  0  0
  7  8  2  0  0  0  0
  7 15  1  0  0  0  0
  8  9  1  0  0  0  0
  8 80  1  0  0  0  0
  9 10  2  0  0  0  0
  9 11  1  0  0  0  0
 10 81  1  0  0  0  0
 11 12  1  0  0  0  0
 11 13  1  0  0  0  0
 11 14  1  0  0  0  0
 15 16  1  0  0  0  0
 15 30  1  0  0  0  0
 16 17  2  0  0  0  0
 16 21  1  0  0  0  0
 17 18  1  0  0  0  0
 17 82  1  0  0  0  0
 18 19  2  0  0  0  0
 18 26  1  0  0  0  0
 19 20  1  0  0  0  0
 19 83  1  0  0  0  0
 20 21  2  0  0  0  0
 20 22  1  0  0  0  0
 21 84  1  0  0  0  0
 22 23  1  0  0  0  0
 22 24  1  0  0  0  0
 22 25  1  0  0  0  0
 26 27  1  0  0  0  0
 26 28  1  0  0  0  0
 26 29  1  0  0  0  0
 30 31  2  0  0  0  0
 30 39  1  0  0  0  0
 31 32  1  0  0  0  0
 31 85  1  0  0  0  0
 32 33  2  0  0  0  0
 32 86  1  0  0  0  0
 33 34  1  0  0  0  0
 33 38  1  0  0  0  0
 34 35  1  0  0  0  0
 35 36  1  0  0  0  0
 35 87  1  0  0  0  0
 35 88  1  0  0  0  0
 36 37  1  0  0  0  0
 36 89  1  0  0  0  0
 36 90  1  0  0  0  0
 37 38  1  0  0  0  0
 38 39  2  0  0  0  0
 39 40  1  0  0  0  0
 40 41  2  0  0  0  0
 40 49  1  0  0  0  0
 41 42  1  0  0  0  0
 41 46  1  0  0  0  0
 42 43  1  0  0  0  0
 43 44  1  0  0  0  0
 43 91  1  0  0  0  0
 43 92  1  0  0  0  0
 44 45  1  0  0  0  0
 44 93  1  0  0  0  0
 44 94  1  0  0  0  0
 45 46  1  0  0  0  0
 46 47  2  0  0  0  0
 47 48  1  0  0  0  0
 47 95  1  0  0  0  0
 48 49  2  0  0  0  0
 48 96  1  0  0  0  0
 49 50  1  0  0  0  0
 50 51  1  0  0  0  0
 50 65  1  0  0  0  0
 51 52  2  0  0  0  0
 51 56  1  0  0  0  0
 52 53  1  0  0  0  0
 52 97  1  0  0  0  0
 53 54  2  0  0  0  0
 53 61  1  0  0  0  0
 54 55  1  0  0  0  0
 54 98  1  0  0  0  0
 55 56  2  0  0  0  0
 55 57  1  0  0  0  0
 56 99  1  0  0  0  0
 57 58  1  0  0  0  0
 57 59  1  0  0  0  0
 57 60  1  0  0  0  0
 61 62  1  0  0  0  0
 61 63  1  0  0  0  0
 61 64  1  0  0  0  0
 65 66  2  0  0  0  0
 65 70  1  0  0  0  0
 66 67  1  0  0  0  0
 66100  1  0  0  0  0
 67 68  2  0  0  0  0
 67 75  1  0  0  0  0
 68 69  1  0  0  0  0
 68101  1  0  0  0  0
 69 70  2  0  0  0  0
 69 71  1  0  0  0  0
 70102  1  0  0  0  0
 71 72  1  0  0  0  0
 71 73  1  0  0  0  0
 71 74  1  0  0  0  0
 75 76  1  0  0  0  0
 75 77  1  0  0  0  0
 75 78  1  0  0  0  0
M  END
$$$$
