Title Card Required
 OpenBabel03192317543D

 56 59  0  0  1  0  0  0  0  0999 V2000
    3.7904    2.1596    0.8275 C   0  0  0  0  0  0  0  0  0  0  0  0
    2.8797    2.6091    1.9914 C   0  0  0  0  0  0  0  0  0  0  0  0
    1.7999    1.8447    1.3289 C   0  0  0  0  0  0  0  0  0  0  0  0
    2.6395    1.3300    0.3464 C   0  0  0  0  0  0  0  0  0  0  0  0
    4.8971    2.3195    0.4056 O   0  0  0  0  0  0  0  0  0  0  0  0
    2.9445    3.2394    3.0076 O   0  0  0  0  0  0  0  0  0  0  0  0
    2.6577    0.5136   -0.7126 N   0  0  0  0  0  0  0  0  0  0  0  0
    1.8175   -0.6619   -0.9770 C   0  0  2  0  0  0  0  0  0  0  0  0
    1.5572   -1.4701    0.3160 C   0  0  2  0  0  0  0  0  0  0  0  0
    2.8814   -2.0370    0.8385 C   0  0  0  0  0  0  0  0  0  0  0  0
    3.5564   -2.9301   -0.2023 C   0  0  0  0  0  0  0  0  0  0  0  0
    3.8025   -2.1632   -1.5015 C   0  0  0  0  0  0  0  0  0  0  0  0
    2.5092   -1.5348   -2.0263 C   0  0  0  0  0  0  0  0  0  0  0  0
    0.6001   -2.5229    0.0348 N   0  0  0  0  0  0  0  0  0  0  0  0
   -0.7076   -2.0604   -0.4540 C   0  0  0  0  0  0  0  0  0  0  0  0
   -1.7528   -2.9424    0.2447 C   0  0  0  0  0  0  0  0  0  0  0  0
   -0.9379   -4.1453    0.7208 C   0  0  0  0  0  0  0  0  0  0  0  0
    0.3811   -3.4888    1.1051 C   0  0  0  0  0  0  0  0  0  0  0  0
    0.5145    1.6984    1.7588 N   0  0  0  0  0  0  0  0  0  0  0  0
   -0.5829    1.4372    0.9471 C   0  0  0  0  0  0  0  0  0  0  0  0
   -0.5276    1.6626   -0.4336 C   0  0  0  0  0  0  0  0  0  0  0  0
   -1.6265    1.3464   -1.2292 C   0  0  0  0  0  0  0  0  0  0  0  0
   -2.7976    0.8334   -0.6828 C   0  0  0  0  0  0  0  0  0  0  0  0
   -2.8500    0.6366    0.6981 C   0  0  0  0  0  0  0  0  0  0  0  0
   -1.7628    0.9276    1.5111 C   0  0  0  0  0  0  0  0  0  0  0  0
   -4.1120    0.0845    1.3119 C   0  0  0  0  0  0  0  0  0  0  0  0
   -4.6924   -0.8035    0.5048 F   0  0  0  0  0  0  0  0  0  0  0  0
   -3.8632   -0.5255    2.4731 F   0  0  0  0  0  0  0  0  0  0  0  0
   -5.0027    1.0463    1.5501 F   0  0  0  0  0  0  0  0  0  0  0  0
   -1.4882    1.5028   -2.7216 C   0  0  0  0  0  0  0  0  0  0  0  0
   -0.8865    2.6474   -3.0400 F   0  0  0  0  0  0  0  0  0  0  0  0
   -0.7399    0.5143   -3.2305 F   0  0  0  0  0  0  0  0  0  0  0  0
   -2.6652    1.4682   -3.3387 F   0  0  0  0  0  0  0  0  0  0  0  0
    3.5563    0.5294   -1.1896 H   0  0  0  0  0  0  0  0  0  0  0  0
    0.8578   -0.3251   -1.3907 H   0  0  0  0  0  0  0  0  0  0  0  0
    1.1429   -0.7728    1.0823 H   0  0  0  0  0  0  0  0  0  0  0  0
    3.5443   -1.1934    1.0921 H   0  0  0  0  0  0  0  0  0  0  0  0
    2.7127   -2.5814    1.7784 H   0  0  0  0  0  0  0  0  0  0  0  0
    4.5041   -3.3239    0.1933 H   0  0  0  0  0  0  0  0  0  0  0  0
    2.9054   -3.7937   -0.4139 H   0  0  0  0  0  0  0  0  0  0  0  0
    4.5640   -1.3835   -1.3217 H   0  0  0  0  0  0  0  0  0  0  0  0
    4.2269   -2.8268   -2.2688 H   0  0  0  0  0  0  0  0  0  0  0  0
    1.8019   -2.3318   -2.2975 H   0  0  0  0  0  0  0  0  0  0  0  0
    2.6941   -0.9370   -2.9330 H   0  0  0  0  0  0  0  0  0  0  0  0
   -0.7656   -2.1390   -1.5537 H   0  0  0  0  0  0  0  0  0  0  0  0
   -0.8693   -1.0014   -0.2001 H   0  0  0  0  0  0  0  0  0  0  0  0
   -2.1618   -2.4119    1.1193 H   0  0  0  0  0  0  0  0  0  0  0  0
   -2.5977   -3.2042   -0.4053 H   0  0  0  0  0  0  0  0  0  0  0  0
   -1.4049   -4.6895    1.5519 H   0  0  0  0  0  0  0  0  0  0  0  0
   -0.7709   -4.8519   -0.1061 H   0  0  0  0  0  0  0  0  0  0  0  0
    0.2833   -2.9939    2.0974 H   0  0  0  0  0  0  0  0  0  0  0  0
    1.2118   -4.2073    1.1740 H   0  0  0  0  0  0  0  0  0  0  0  0
    0.3437    1.9927    2.7158 H   0  0  0  0  0  0  0  0  0  0  0  0
    0.3756    2.0771   -0.8864 H   0  0  0  0  0  0  0  0  0  0  0  0
   -3.6462    0.5772   -1.3167 H   0  0  0  0  0  0  0  0  0  0  0  0
   -1.8119    0.7289    2.5828 H   0  0  0  0  0  0  0  0  0  0  0  0
  1  2  1  0  0  0  0
  1  4  1  0  0  0  0
  1  5  2  0  0  0  0
  2  3  1  0  0  0  0
  2  6  2  0  0  0  0
  3  4  2  0  0  0  0
  3 19  1  0  0  0  0
  4  7  1  0  0  0  0
  7  8  1  0  0  0  0
  7 34  1  0  0  0  0
  8  9  1  0  0  0  0
  8 13  1  0  0  0  0
  8 35  1  6  0  0  0
  9 10  1  0  0  0  0
  9 14  1  0  0  0  0
  9 36  1  1  0  0  0
 10 11  1  0  0  0  0
 10 37  1  0  0  0  0
 10 38  1  0  0  0  0
 11 12  1  0  0  0  0
 11 39  1  0  0  0  0
 11 40  1  0  0  0  0
 12 13  1  0  0  0  0
 12 41  1  0  0  0  0
 12 42  1  0  0  0  0
 13 43  1  0  0  0  0
 13 44  1  0  0  0  0
 14 15  1  0  0  0  0
 14 18  1  0  0  0  0
 15 16  1  0  0  0  0
 15 45  1  0  0  0  0
 15 46  1  0  0  0  0
 16 17  1  0  0  0  0
 16 47  1  0  0  0  0
 16 48  1  0  0  0  0
 17 18  1  0  0  0  0
 17 49  1  0  0  0  0
 17 50  1  0  0  0  0
 18 51  1  0  0  0  0
 18 52  1  0  0  0  0
 19 20  1  0  0  0  0
 19 53  1  0  0  0  0
 20 21  2  0  0  0  0
 20 25  1  0  0  0  0
 21 22  1  0  0  0  0
 21 54  1  0  0  0  0
 22 23  2  0  0  0  0
 22 30  1  0  0  0  0
 23 24  1  0  0  0  0
 23 55  1  0  0  0  0
 24 25  2  0  0  0  0
 24 26  1  0  0  0  0
 25 56  1  0  0  0  0
 26 27  1  0  0  0  0
 26 28  1  0  0  0  0
 26 29  1  0  0  0  0
 30 31  1  0  0  0  0
 30 32  1  0  0  0  0
 30 33  1  0  0  0  0
M  END
$$$$
