Title Card Required
 OpenBabel03192317453D

 54 57  0  0  1  0  0  0  0  0999 V2000
    1.5142   -2.9369    0.0916 C   0  0  0  0  0  0  0  0  0  0  0  0
    2.6805   -2.1599    0.0482 C   0  0  0  0  0  0  0  0  0  0  0  0
    3.9368   -2.7403    0.1998 C   0  0  0  0  0  0  0  0  0  0  0  0
    4.0028   -4.1185    0.3957 C   0  0  0  0  0  0  0  0  0  0  0  0
    2.8375   -4.8960    0.4392 C   0  0  0  0  0  0  0  0  0  0  0  0
    1.5799   -4.3139    0.2884 C   0  0  0  0  0  0  0  0  0  0  0  0
    0.3628   -2.0323   -0.1011 C   0  0  0  0  0  0  0  0  0  0  0  0
    0.9035   -0.7709   -0.2527 N   0  0  0  0  0  0  0  0  0  0  0  0
    2.2741   -0.7601   -0.1687 C   0  0  0  0  0  0  0  0  0  0  0  0
   -0.9447   -2.3870   -0.1187 C   0  0  0  0  0  3  0  0  0  0  0  0
    3.0700    0.3367   -0.2629 C   0  0  0  0  0  3  0  0  0  0  0  0
   -2.0551   -1.4750   -0.3112 C   0  0  0  0  0  0  0  0  0  0  0  0
    2.5180    1.6603   -0.4533 C   0  0  0  0  0  0  0  0  0  0  0  0
   -1.7407   -0.1691   -0.5520 O   0  0  0  0  0  0  0  0  0  0  0  0
   -2.9747    0.5458   -0.5807 C   0  0  0  0  0  0  0  0  0  0  0  0
   -4.0478   -0.5692   -0.5711 C   0  0  1  0  0  0  0  0  0  0  0  0
   -3.2895   -1.7843   -0.2911 N   0  0  0  0  0  0  0  0  0  0  0  0
    1.2812    1.9619   -0.5956 N   0  0  0  0  0  0  0  0  0  0  0  0
    1.1921    3.4180   -0.6362 C   0  0  2  0  0  0  0  0  0  0  0  0
    2.6694    3.8628   -0.7598 C   0  0  0  0  0  0  0  0  0  0  0  0
    3.4091    2.6812   -0.4559 O   0  0  0  0  0  0  0  0  0  0  0  0
   -5.1754   -0.3310    0.4372 C   0  0  0  0  0  0  0  0  0  0  0  0
    0.4632    3.9564    0.6088 C   0  0  0  0  0  0  0  0  0  0  0  0
   -5.9367    0.9487    0.0964 C   0  0  0  0  0  0  0  0  0  0  0  0
   -6.1121   -1.5331    0.4968 C   0  0  0  0  0  0  0  0  0  0  0  0
    1.1681    3.5570    1.9023 C   0  0  0  0  0  0  0  0  0  0  0  0
    0.2640    5.4672    0.5147 C   0  0  0  0  0  0  0  0  0  0  0  0
    4.8446   -2.1359    0.1670 H   0  0  0  0  0  0  0  0  0  0  0  0
    4.9738   -4.6005    0.5173 H   0  0  0  0  0  0  0  0  0  0  0  0
    2.9173   -5.9729    0.5934 H   0  0  0  0  0  0  0  0  0  0  0  0
    0.6753   -4.9230    0.3218 H   0  0  0  0  0  0  0  0  0  0  0  0
    0.3709    0.0862   -0.4144 H   0  0  0  0  0  0  0  0  0  0  0  0
   -1.2147   -3.4311    0.0243 H   0  0  0  0  0  0  0  0  0  0  0  0
    4.1500    0.2403   -0.1807 H   0  0  0  0  0  0  0  0  0  0  0  0
   -2.9934    1.1858   -1.4718 H   0  0  0  0  0  0  0  0  0  0  0  0
   -3.0321    1.1803    0.3198 H   0  0  0  0  0  0  0  0  0  0  0  0
   -4.5136   -0.6766   -1.5699 H   0  0  0  0  0  0  0  0  0  0  0  0
    0.6159    3.7284   -1.5227 H   0  0  0  0  0  0  0  0  0  0  0  0
    2.9277    4.1871   -1.7790 H   0  0  0  0  0  0  0  0  0  0  0  0
    2.9590    4.6525   -0.0528 H   0  0  0  0  0  0  0  0  0  0  0  0
   -4.6949   -0.2102    1.4249 H   0  0  0  0  0  0  0  0  0  0  0  0
   -0.5279    3.4723    0.5988 H   0  0  0  0  0  0  0  0  0  0  0  0
   -6.4084    0.8605   -0.8956 H   0  0  0  0  0  0  0  0  0  0  0  0
   -6.7336    1.1365    0.8300 H   0  0  0  0  0  0  0  0  0  0  0  0
   -5.2823    1.8335    0.0823 H   0  0  0  0  0  0  0  0  0  0  0  0
   -5.5518   -2.4468    0.7305 H   0  0  0  0  0  0  0  0  0  0  0  0
   -6.8932   -1.3846    1.2566 H   0  0  0  0  0  0  0  0  0  0  0  0
   -6.6095   -1.6787   -0.4758 H   0  0  0  0  0  0  0  0  0  0  0  0
    2.1817    3.9858    1.9595 H   0  0  0  0  0  0  0  0  0  0  0  0
    0.6079    3.9188    2.7767 H   0  0  0  0  0  0  0  0  0  0  0  0
    1.2544    2.4643    1.9807 H   0  0  0  0  0  0  0  0  0  0  0  0
   -0.2588    5.7482   -0.4119 H   0  0  0  0  0  0  0  0  0  0  0  0
   -0.3288    5.8368    1.3637 H   0  0  0  0  0  0  0  0  0  0  0  0
    1.2285    5.9995    0.5340 H   0  0  0  0  0  0  0  0  0  0  0  0
  1  2  1  0  0  0  0
  1  6  1  0  0  0  0
  1  7  2  0  0  0  0
  2  3  1  0  0  0  0
  2  9  2  0  0  0  0
  3  4  2  0  0  0  0
  3 28  1  0  0  0  0
  4  5  1  0  0  0  0
  4 29  1  0  0  0  0
  5  6  2  0  0  0  0
  5 30  1  0  0  0  0
  6 31  1  0  0  0  0
  7  8  1  0  0  0  0
  7 10  1  0  0  0  0
  8  9  1  0  0  0  0
  8 32  1  0  0  0  0
  9 11  1  0  0  0  0
 10 12  1  0  0  0  0
 10 33  1  0  0  0  0
 11 13  1  0  0  0  0
 11 34  1  0  0  0  0
 12 14  1  0  0  0  0
 12 17  2  0  0  0  0
 13 18  2  0  0  0  0
 13 21  1  0  0  0  0
 14 15  1  0  0  0  0
 15 16  1  0  0  0  0
 15 35  1  0  0  0  0
 15 36  1  0  0  0  0
 16 17  1  0  0  0  0
 16 22  1  0  0  0  0
 16 37  1  6  0  0  0
 18 19  1  0  0  0  0
 19 20  1  0  0  0  0
 19 23  1  0  0  0  0
 19 38  1  6  0  0  0
 20 21  1  0  0  0  0
 20 39  1  0  0  0  0
 20 40  1  0  0  0  0
 22 24  1  0  0  0  0
 22 25  1  0  0  0  0
 22 41  1  0  0  0  0
 23 26  1  0  0  0  0
 23 27  1  0  0  0  0
 23 42  1  0  0  0  0
 24 43  1  0  0  0  0
 24 44  1  0  0  0  0
 24 45  1  0  0  0  0
 25 46  1  0  0  0  0
 25 47  1  0  0  0  0
 25 48  1  0  0  0  0
 26 49  1  0  0  0  0
 26 50  1  0  0  0  0
 26 51  1  0  0  0  0
 27 52  1  0  0  0  0
 27 53  1  0  0  0  0
 27 54  1  0  0  0  0
M  END
$$$$
