Title Card Required
 OpenBabel03192317533D

106111  0  0  0  0  0  0  0  0999 V2000
   -0.1902    4.2803   -2.7854 C   0  0  0  0  0  0  0  0  0  0  0  0
    0.5738    3.7562   -1.7374 C   0  0  0  0  0  0  0  0  0  0  0  0
    0.1777    2.6012   -1.0303 C   0  0  0  0  0  0  0  0  0  0  0  0
   -1.0265    1.9787   -1.4145 C   0  0  0  0  0  0  0  0  0  0  0  0
   -1.7917    2.4936   -2.4630 C   0  0  0  0  0  0  0  0  0  0  0  0
   -1.3809    3.6421   -3.1423 C   0  0  0  0  0  0  0  0  0  0  0  0
    1.0426    2.2062    0.1258 C   0  0  0  0  0  0  0  0  0  0  0  0
    1.0955    3.1170    1.2074 C   0  0  0  0  0  0  0  0  0  0  0  0
    1.9584    2.9390    2.2872 C   0  0  0  0  0  0  0  0  0  0  0  0
    2.8095    1.8297    2.3036 C   0  0  0  0  0  0  0  0  0  0  0  0
    2.7864    0.9258    1.2425 C   0  0  0  0  0  0  0  0  0  0  0  0
    1.8984    1.0906    0.1745 C   0  0  0  0  0  0  0  0  0  0  0  0
   -1.4238    0.3026   -0.7849 P   0  0  0  0  0  0  0  0  0  0  0  0
    1.8963   -0.1449   -1.2147 P   0  0  0  0  0  0  0  0  0  0  0  0
   -2.1863    4.0647   -4.1366 O   0  0  0  0  0  0  0  0  0  0  0  0
   -1.8207    5.2049   -4.8685 C   0  0  0  0  0  0  0  0  0  0  0  0
    1.7382    4.3159   -1.3448 O   0  0  0  0  0  0  0  0  0  0  0  0
    2.1718    5.5006   -1.9592 C   0  0  0  0  0  0  0  0  0  0  0  0
    0.2470    4.1667    1.1378 O   0  0  0  0  0  0  0  0  0  0  0  0
    0.4762    5.2904    1.9540 C   0  0  0  0  0  0  0  0  0  0  0  0
    3.6748    1.5665    3.3009 O   0  0  0  0  0  0  0  0  0  0  0  0
    3.6860    2.4122    4.4232 C   0  0  0  0  0  0  0  0  0  0  0  0
   -1.6711    0.4598    1.0312 C   0  0  0  0  0  0  0  0  0  0  0  0
   -1.6362    1.6550    1.7504 C   0  0  0  0  0  0  0  0  0  0  0  0
   -1.7656    1.6273    3.1404 C   0  0  0  0  0  0  0  0  0  0  0  0
   -1.9683    0.4310    3.8227 C   0  0  0  0  0  0  0  0  0  0  0  0
   -2.0333   -0.7561    3.0951 C   0  0  0  0  0  0  0  0  0  0  0  0
   -1.8655   -0.7477    1.7143 C   0  0  0  0  0  0  0  0  0  0  0  0
   -3.1742    0.0099   -1.2847 C   0  0  0  0  0  0  0  0  0  0  0  0
   -3.4340   -1.1561   -2.0102 C   0  0  0  0  0  0  0  0  0  0  0  0
   -4.7415   -1.5015   -2.3444 C   0  0  0  0  0  0  0  0  0  0  0  0
   -5.8037   -0.6751   -1.9873 C   0  0  0  0  0  0  0  0  0  0  0  0
   -5.5432    0.4934   -1.2741 C   0  0  0  0  0  0  0  0  0  0  0  0
   -4.2408    0.8334   -0.9126 C   0  0  0  0  0  0  0  0  0  0  0  0
    3.7061   -0.5055   -1.2774 C   0  0  0  0  0  0  0  0  0  0  0  0
    1.2504   -1.6735   -0.3646 C   0  0  0  0  0  0  0  0  0  0  0  0
    4.5708    0.5802   -1.4940 C   0  0  0  0  0  0  0  0  0  0  0  0
    5.9356    0.3741   -1.6358 C   0  0  0  0  0  0  0  0  0  0  0  0
    6.4749   -0.9145   -1.5920 C   0  0  0  0  0  0  0  0  0  0  0  0
    5.6185   -1.9875   -1.3935 C   0  0  0  0  0  0  0  0  0  0  0  0
    4.2428   -1.7913   -1.2301 C   0  0  0  0  0  0  0  0  0  0  0  0
    0.4004   -2.4926   -1.1224 C   0  0  0  0  0  0  0  0  0  0  0  0
   -0.2452   -3.5790   -0.5424 C   0  0  0  0  0  0  0  0  0  0  0  0
   -0.0332   -3.9046    0.7999 C   0  0  0  0  0  0  0  0  0  0  0  0
    0.8263   -3.1099    1.5446 C   0  0  0  0  0  0  0  0  0  0  0  0
    1.4545   -1.9975    0.9759 C   0  0  0  0  0  0  0  0  0  0  0  0
   -1.6386    2.9077    3.9200 C   0  0  0  0  0  0  0  0  0  0  0  0
   -2.0360    3.9660    3.2124 F   0  0  0  0  0  0  0  0  0  0  0  0
   -2.3499    2.8775    5.0454 F   0  0  0  0  0  0  0  0  0  0  0  0
   -0.3634    3.1411    4.2764 F   0  0  0  0  0  0  0  0  0  0  0  0
   -2.3527   -2.0442    3.8087 C   0  0  0  0  0  0  0  0  0  0  0  0
   -1.8251   -2.0759    5.0294 F   0  0  0  0  0  0  0  0  0  0  0  0
   -3.6706   -2.2015    3.9454 F   0  0  0  0  0  0  0  0  0  0  0  0
   -1.9028   -3.1073    3.1330 F   0  0  0  0  0  0  0  0  0  0  0  0
   -6.6770    1.3928   -0.8512 C   0  0  0  0  0  0  0  0  0  0  0  0
   -7.7764    1.1699   -1.5700 F   0  0  0  0  0  0  0  0  0  0  0  0
   -6.9943    1.2091    0.4311 F   0  0  0  0  0  0  0  0  0  0  0  0
   -6.3490    2.6778   -0.9918 F   0  0  0  0  0  0  0  0  0  0  0  0
   -5.0261   -2.7973   -3.0605 C   0  0  0  0  0  0  0  0  0  0  0  0
   -3.9237   -3.3227   -3.5899 F   0  0  0  0  0  0  0  0  0  0  0  0
   -5.5457   -3.7024   -2.2310 F   0  0  0  0  0  0  0  0  0  0  0  0
   -5.9097   -2.6181   -4.0453 F   0  0  0  0  0  0  0  0  0  0  0  0
    1.0808   -3.3886    3.0033 C   0  0  0  0  0  0  0  0  0  0  0  0
    0.4989   -4.5120    3.4094 F   0  0  0  0  0  0  0  0  0  0  0  0
    2.3880   -3.4935    3.2503 F   0  0  0  0  0  0  0  0  0  0  0  0
    0.6265   -2.3893    3.7686 F   0  0  0  0  0  0  0  0  0  0  0  0
   -1.2824   -4.3464   -1.3192 C   0  0  0  0  0  0  0  0  0  0  0  0
   -1.1999   -4.1126   -2.6286 F   0  0  0  0  0  0  0  0  0  0  0  0
   -1.1833   -5.6579   -1.1238 F   0  0  0  0  0  0  0  0  0  0  0  0
   -2.5167   -3.9845   -0.9339 F   0  0  0  0  0  0  0  0  0  0  0  0
    6.1529   -3.3965   -1.3858 C   0  0  0  0  0  0  0  0  0  0  0  0
    7.4763   -3.4230   -1.2314 F   0  0  0  0  0  0  0  0  0  0  0  0
    5.6122   -4.1156   -0.4018 F   0  0  0  0  0  0  0  0  0  0  0  0
    5.8711   -4.0257   -2.5290 F   0  0  0  0  0  0  0  0  0  0  0  0
    6.8726    1.5415   -1.8034 C   0  0  0  0  0  0  0  0  0  0  0  0
    6.2227    2.6589   -2.1308 F   0  0  0  0  0  0  0  0  0  0  0  0
    7.5458    1.7881   -0.6774 F   0  0  0  0  0  0  0  0  0  0  0  0
    7.7779    1.3040   -2.7540 F   0  0  0  0  0  0  0  0  0  0  0  0
    0.1436    5.1674   -3.3155 H   0  0  0  0  0  0  0  0  0  0  0  0
   -2.7134    2.0200   -2.7984 H   0  0  0  0  0  0  0  0  0  0  0  0
    1.9515    3.6520    3.1064 H   0  0  0  0  0  0  0  0  0  0  0  0
    3.5068    0.1079    1.2701 H   0  0  0  0  0  0  0  0  0  0  0  0
   -1.7597    6.0967   -4.2228 H   0  0  0  0  0  0  0  0  0  0  0  0
   -0.8543    5.0630   -5.3800 H   0  0  0  0  0  0  0  0  0  0  0  0
   -2.6029    5.3598   -5.6192 H   0  0  0  0  0  0  0  0  0  0  0  0
    2.3603    5.3537   -3.0352 H   0  0  0  0  0  0  0  0  0  0  0  0
    1.4370    6.3122   -1.8287 H   0  0  0  0  0  0  0  0  0  0  0  0
    3.1108    5.7803   -1.4690 H   0  0  0  0  0  0  0  0  0  0  0  0
    0.2929    5.0666    3.0150 H   0  0  0  0  0  0  0  0  0  0  0  0
    1.5062    5.6607    1.8239 H   0  0  0  0  0  0  0  0  0  0  0  0
   -0.2347    6.0578    1.6281 H   0  0  0  0  0  0  0  0  0  0  0  0
    3.9939    3.4359    4.1535 H   0  0  0  0  0  0  0  0  0  0  0  0
    2.6954    2.4483    4.9060 H   0  0  0  0  0  0  0  0  0  0  0  0
    4.4147    1.9927    5.1247 H   0  0  0  0  0  0  0  0  0  0  0  0
   -1.4984    2.6108    1.2385 H   0  0  0  0  0  0  0  0  0  0  0  0
   -2.0797    0.4206    4.9079 H   0  0  0  0  0  0  0  0  0  0  0  0
   -1.8913   -1.6930    1.1620 H   0  0  0  0  0  0  0  0  0  0  0  0
   -2.6145   -1.8095   -2.3137 H   0  0  0  0  0  0  0  0  0  0  0  0
   -6.8265   -0.9330   -2.2670 H   0  0  0  0  0  0  0  0  0  0  0  0
   -4.0574    1.7521   -0.3485 H   0  0  0  0  0  0  0  0  0  0  0  0
    4.1734    1.5977   -1.5386 H   0  0  0  0  0  0  0  0  0  0  0  0
    7.5474   -1.0747   -1.7097 H   0  0  0  0  0  0  0  0  0  0  0  0
    3.5994   -2.6566   -1.0540 H   0  0  0  0  0  0  0  0  0  0  0  0
    0.2032   -2.2445   -2.1675 H   0  0  0  0  0  0  0  0  0  0  0  0
   -0.5451   -4.7508    1.2609 H   0  0  0  0  0  0  0  0  0  0  0  0
    2.0864   -1.3778    1.6126 H   0  0  0  0  0  0  0  0  0  0  0  0
  1  2  2  0  0  0  0
  1  6  1  0  0  0  0
  1 79  1  0  0  0  0
  2  3  1  0  0  0  0
  2 17  1  0  0  0  0
  3  4  2  0  0  0  0
  3  7  1  0  0  0  0
  4  5  1  0  0  0  0
  4 13  1  0  0  0  0
  5  6  2  0  0  0  0
  5 80  1  0  0  0  0
  6 15  1  0  0  0  0
  7  8  2  0  0  0  0
  7 12  1  0  0  0  0
  8  9  1  0  0  0  0
  8 19  1  0  0  0  0
  9 10  2  0  0  0  0
  9 81  1  0  0  0  0
 10 11  1  0  0  0  0
 10 21  1  0  0  0  0
 11 12  2  0  0  0  0
 11 82  1  0  0  0  0
 12 14  1  0  0  0  0
 13 23  1  0  0  0  0
 13 29  1  0  0  0  0
 14 35  1  0  0  0  0
 14 36  1  0  0  0  0
 15 16  1  0  0  0  0
 16 83  1  0  0  0  0
 16 84  1  0  0  0  0
 16 85  1  0  0  0  0
 17 18  1  0  0  0  0
 18 86  1  0  0  0  0
 18 87  1  0  0  0  0
 18 88  1  0  0  0  0
 19 20  1  0  0  0  0
 20 89  1  0  0  0  0
 20 90  1  0  0  0  0
 20 91  1  0  0  0  0
 21 22  1  0  0  0  0
 22 92  1  0  0  0  0
 22 93  1  0  0  0  0
 22 94  1  0  0  0  0
 23 24  2  0  0  0  0
 23 28  1  0  0  0  0
 24 25  1  0  0  0  0
 24 95  1  0  0  0  0
 25 26  2  0  0  0  0
 25 47  1  0  0  0  0
 26 27  1  0  0  0  0
 26 96  1  0  0  0  0
 27 28  2  0  0  0  0
 27 51  1  0  0  0  0
 28 97  1  0  0  0  0
 29 30  2  0  0  0  0
 29 34  1  0  0  0  0
 30 31  1  0  0  0  0
 30 98  1  0  0  0  0
 31 32  2  0  0  0  0
 31 59  1  0  0  0  0
 32 33  1  0  0  0  0
 32 99  1  0  0  0  0
 33 34  2  0  0  0  0
 33 55  1  0  0  0  0
 34100  1  0  0  0  0
 35 37  2  0  0  0  0
 35 41  1  0  0  0  0
 36 42  2  0  0  0  0
 36 46  1  0  0  0  0
 37 38  1  0  0  0  0
 37101  1  0  0  0  0
 38 39  2  0  0  0  0
 38 75  1  0  0  0  0
 39 40  1  0  0  0  0
 39102  1  0  0  0  0
 40 41  2  0  0  0  0
 40 71  1  0  0  0  0
 41103  1  0  0  0  0
 42 43  1  0  0  0  0
 42104  1  0  0  0  0
 43 44  2  0  0  0  0
 43 67  1  0  0  0  0
 44 45  1  0  0  0  0
 44105  1  0  0  0  0
 45 46  2  0  0  0  0
 45 63  1  0  0  0  0
 46106  1  0  0  0  0
 47 48  1  0  0  0  0
 47 49  1  0  0  0  0
 47 50  1  0  0  0  0
 51 52  1  0  0  0  0
 51 53  1  0  0  0  0
 51 54  1  0  0  0  0
 55 56  1  0  0  0  0
 55 57  1  0  0  0  0
 55 58  1  0  0  0  0
 59 60  1  0  0  0  0
 59 61  1  0  0  0  0
 59 62  1  0  0  0  0
 63 64  1  0  0  0  0
 63 65  1  0  0  0  0
 63 66  1  0  0  0  0
 67 68  1  0  0  0  0
 67 69  1  0  0  0  0
 67 70  1  0  0  0  0
 71 72  1  0  0  0  0
 71 73  1  0  0  0  0
 71 74  1  0  0  0  0
 75 76  1  0  0  0  0
 75 77  1  0  0  0  0
 75 78  1  0  0  0  0
M  END
$$$$
