Title Card Required
 OpenBabel03192317423D

 59 62  0  0  1  0  0  0  0  0999 V2000
    5.1121    2.0650   -0.4641 C   0  0  0  0  0  0  0  0  0  0  0  0
    0.8748   -3.6720   -0.2339 C   0  0  0  0  0  0  0  0  0  0  0  0
    0.0148    0.8413    3.6868 C   0  0  0  0  0  0  0  0  0  0  0  0
    2.0114    1.2011    2.2101 C   0  0  0  0  0  0  0  0  0  0  0  0
   -0.0593    2.5549    1.8548 C   0  0  0  0  0  0  0  0  0  0  0  0
   -1.8863    0.2106    0.8183 C   0  0  2  0  0  0  0  0  0  0  0  0
   -0.8080    1.1343   -0.9968 C   0  0  0  0  0  0  0  0  0  0  0  0
   -0.7539    1.7804   -2.2294 C   0  0  0  0  0  0  0  0  0  0  0  0
    0.4221    1.6729   -2.9718 C   0  0  0  0  0  0  0  0  0  0  0  0
    1.5078    0.9317   -2.5053 C   0  0  0  0  0  0  0  0  0  0  0  0
    1.4444    0.2789   -1.2681 C   0  0  0  0  0  0  0  0  0  0  0  0
    0.2793    0.4044   -0.5033 C   0  0  0  0  0  0  0  0  0  0  0  0
    2.5861   -0.5273   -0.7547 C   0  0  0  0  0  0  0  0  0  0  0  0
    0.4796    1.1856    2.2679 C   0  0  0  0  0  0  0  0  0  0  0  0
    3.8327    0.0685   -0.4979 C   0  0  0  0  0  0  0  0  0  0  0  0
    2.4178   -1.8931   -0.4657 C   0  0  0  0  0  0  0  0  0  0  0  0
    4.8823   -0.6714    0.0602 C   0  0  0  0  0  0  0  0  0  0  0  0
    4.6768   -2.0155    0.3575 C   0  0  0  0  0  0  0  0  0  0  0  0
    3.4591   -2.6378    0.1044 C   0  0  0  0  0  0  0  0  0  0  0  0
   -1.9088    1.1999   -0.2102 O   0  0  0  0  0  0  0  0  0  0  0  0
    1.2145   -2.4210   -0.7719 O   0  0  0  0  0  0  0  0  0  0  0  0
    3.9241    1.3884   -0.7804 O   0  0  0  0  0  0  0  0  0  0  0  0
   -0.0879   -0.2532    1.1675 P   0  0  1  0  0  0  0  0  0  0  0  0
   -2.6705   -1.0234    0.3559 C   0  0  0  0  0  0  0  0  0  0  0  0
   -4.1021   -0.7071    0.0060 C   0  0  0  0  0  0  0  0  0  0  0  0
    4.9619    3.1107   -0.7541 H   0  0  0  0  0  0  0  0  0  0  0  0
    5.9713    1.6557   -1.0203 H   0  0  0  0  0  0  0  0  0  0  0  0
    5.3263    2.0157    0.6166 H   0  0  0  0  0  0  0  0  0  0  0  0
    1.4914   -4.4800   -0.6610 H   0  0  0  0  0  0  0  0  0  0  0  0
    0.9795   -3.6693    0.8635 H   0  0  0  0  0  0  0  0  0  0  0  0
   -0.1745   -3.8509   -0.4951 H   0  0  0  0  0  0  0  0  0  0  0  0
    0.4202   -0.1264    4.0191 H   0  0  0  0  0  0  0  0  0  0  0  0
    0.3572    1.6165    4.3915 H   0  0  0  0  0  0  0  0  0  0  0  0
   -1.0838    0.7941    3.7553 H   0  0  0  0  0  0  0  0  0  0  0  0
    2.3643    1.5265    1.2193 H   0  0  0  0  0  0  0  0  0  0  0  0
    2.4021    1.9096    2.9596 H   0  0  0  0  0  0  0  0  0  0  0  0
    2.4410    0.2076    2.4187 H   0  0  0  0  0  0  0  0  0  0  0  0
    0.2449    2.8139    0.8297 H   0  0  0  0  0  0  0  0  0  0  0  0
   -1.1563    2.6043    1.9078 H   0  0  0  0  0  0  0  0  0  0  0  0
    0.3465    3.3248    2.5324 H   0  0  0  0  0  0  0  0  0  0  0  0
   -2.3678    0.6529    1.7038 H   0  0  0  0  0  0  0  0  0  0  0  0
   -1.6149    2.3485   -2.5818 H   0  0  0  0  0  0  0  0  0  0  0  0
    0.4894    2.1709   -3.9405 H   0  0  0  0  0  0  0  0  0  0  0  0
    2.4178    0.8532   -3.1007 H   0  0  0  0  0  0  0  0  0  0  0  0
    5.8450   -0.2108    0.2705 H   0  0  0  0  0  0  0  0  0  0  0  0
    5.4906   -2.5944    0.7973 H   0  0  0  0  0  0  0  0  0  0  0  0
    3.3283   -3.6923    0.3375 H   0  0  0  0  0  0  0  0  0  0  0  0
   -2.1479   -1.4531   -0.5159 H   0  0  0  0  0  0  0  0  0  0  0  0
   -2.6294   -1.7726    1.1609 H   0  0  0  0  0  0  0  0  0  0  0  0
   -4.4309   -0.1839   -1.2498 C   0  0  0  0  0  0  0  0  0  0  0  0
   -5.7483    0.1471   -1.5588 C   0  0  0  0  0  0  0  0  0  0  0  0
   -6.7588   -0.0383   -0.6147 C   0  0  0  0  0  0  0  0  0  0  0  0
   -6.4427   -0.5568    0.6395 C   0  0  0  0  0  0  0  0  0  0  0  0
   -5.1231   -0.8875    0.9449 C   0  0  0  0  0  0  0  0  0  0  0  0
   -3.6401   -0.0347   -1.9886 H   0  0  0  0  0  0  0  0  0  0  0  0
   -5.9886    0.5518   -2.5434 H   0  0  0  0  0  0  0  0  0  0  0  0
   -7.7911    0.2188   -0.8580 H   0  0  0  0  0  0  0  0  0  0  0  0
   -7.2267   -0.7081    1.3835 H   0  0  0  0  0  0  0  0  0  0  0  0
   -4.8807   -1.2985    1.9284 H   0  0  0  0  0  0  0  0  0  0  0  0
  1 22  1  0  0  0  0
  1 26  1  0  0  0  0
  1 27  1  0  0  0  0
  1 28  1  0  0  0  0
  2 21  1  0  0  0  0
  2 29  1  0  0  0  0
  2 30  1  0  0  0  0
  2 31  1  0  0  0  0
  3 14  1  0  0  0  0
  3 32  1  0  0  0  0
  3 33  1  0  0  0  0
  3 34  1  0  0  0  0
  4 14  1  0  0  0  0
  4 35  1  0  0  0  0
  4 36  1  0  0  0  0
  4 37  1  0  0  0  0
  5 14  1  0  0  0  0
  5 38  1  0  0  0  0
  5 39  1  0  0  0  0
  5 40  1  0  0  0  0
  6 20  1  0  0  0  0
  6 23  1  0  0  0  0
  6 24  1  0  0  0  0
  6 41  1  1  0  0  0
  7  8  2  0  0  0  0
  7 12  1  0  0  0  0
  7 20  1  0  0  0  0
  8  9  1  0  0  0  0
  8 42  1  0  0  0  0
  9 10  2  0  0  0  0
  9 43  1  0  0  0  0
 10 11  1  0  0  0  0
 10 44  1  0  0  0  0
 11 12  2  0  0  0  0
 11 13  1  0  0  0  0
 12 23  1  0  0  0  0
 13 15  2  0  0  0  0
 13 16  1  0  0  0  0
 15 17  1  0  0  0  0
 15 22  1  0  0  0  0
 16 19  2  0  0  0  0
 16 21  1  0  0  0  0
 17 18  2  0  0  0  0
 17 45  1  0  0  0  0
 18 19  1  0  0  0  0
 18 46  1  0  0  0  0
 19 47  1  0  0  0  0
 23 14  1  1  0  0  0
 24 25  1  0  0  0  0
 24 48  1  0  0  0  0
 24 49  1  0  0  0  0
 25 50  2  0  0  0  0
 25 54  1  0  0  0  0
 50 51  1  0  0  0  0
 50 55  1  0  0  0  0
 51 52  2  0  0  0  0
 51 56  1  0  0  0  0
 52 53  1  0  0  0  0
 52 57  1  0  0  0  0
 53 54  2  0  0  0  0
 53 58  1  0  0  0  0
 54 59  1  0  0  0  0
M  END
$$$$
