Title Card Required
 OpenBabel03192317473D

 86 93  0  0  0  0  0  0  0  0999 V2000
    0.1445    0.9227   -0.7373 C   0  0  0  0  0  0  0  0  0  0  0  0
    1.0333   -0.0362   -1.2608 C   0  0  0  0  0  0  0  0  0  0  0  0
    1.2730   -0.0570   -2.6380 C   0  0  0  0  0  0  0  0  0  0  0  0
    0.6434    0.8606   -3.4698 C   0  0  0  0  0  0  0  0  0  0  0  0
   -0.2396    1.8191   -2.9643 C   0  0  0  0  0  0  0  0  0  0  0  0
   -0.8777    2.8074   -3.9196 C   0  0  0  0  0  0  0  0  0  0  0  0
   -2.0998    3.5069   -3.3360 C   0  0  0  0  0  0  0  0  0  0  0  0
   -1.7779    4.0213   -1.9383 C   0  0  0  0  0  0  0  0  0  0  0  0
   -1.4808    2.8522   -1.0045 C   0  0  0  0  0  0  0  0  0  0  0  0
   -0.4934    1.8555   -1.5817 C   0  0  0  0  0  0  0  0  0  0  0  0
   -0.1446    0.9231    0.7368 C   0  0  0  0  0  0  0  0  0  0  0  0
   -1.0332   -0.0358    1.2606 C   0  0  0  0  0  0  0  0  0  0  0  0
   -1.2734   -0.0556    2.6378 C   0  0  0  0  0  0  0  0  0  0  0  0
   -0.6444    0.8626    3.4692 C   0  0  0  0  0  0  0  0  0  0  0  0
    0.2386    1.8210    2.9633 C   0  0  0  0  0  0  0  0  0  0  0  0
    0.8759    2.8101    3.9182 C   0  0  0  0  0  0  0  0  0  0  0  0
    2.0974    3.5105    3.3346 C   0  0  0  0  0  0  0  0  0  0  0  0
    1.7757    4.0234    1.9363 C   0  0  0  0  0  0  0  0  0  0  0  0
    1.4800    2.8533    1.0033 C   0  0  0  0  0  0  0  0  0  0  0  0
    0.4928    1.8565    1.5808 C   0  0  0  0  0  0  0  0  0  0  0  0
   -1.7844   -1.2537    0.0752 P   0  0  0  0  0  0  0  0  0  0  0  0
   -2.5425   -2.4627    1.2386 C   0  0  0  0  0  0  0  0  0  0  0  0
   -1.6485   -3.2770    1.9529 C   0  0  0  0  0  0  0  0  0  0  0  0
   -2.1195   -4.2668    2.8098 C   0  0  0  0  0  0  0  0  0  0  0  0
   -3.4934   -4.4763    2.9491 C   0  0  0  0  0  0  0  0  0  0  0  0
   -4.3867   -3.6891    2.2275 C   0  0  0  0  0  0  0  0  0  0  0  0
   -3.9159   -2.6854    1.3772 C   0  0  0  0  0  0  0  0  0  0  0  0
   -3.2264   -0.2536   -0.5014 C   0  0  0  0  0  0  0  0  0  0  0  0
   -3.4592   -0.1847   -1.8785 C   0  0  0  0  0  0  0  0  0  0  0  0
   -4.4909    0.6089   -2.3847 C   0  0  0  0  0  0  0  0  0  0  0  0
   -5.2969    1.3411   -1.5152 C   0  0  0  0  0  0  0  0  0  0  0  0
   -5.0732    1.2774   -0.1376 C   0  0  0  0  0  0  0  0  0  0  0  0
   -4.0415    0.4885    0.3652 C   0  0  0  0  0  0  0  0  0  0  0  0
    1.7850   -1.2533   -0.0748 P   0  0  0  0  0  0  0  0  0  0  0  0
    2.5440   -2.4623   -1.2375 C   0  0  0  0  0  0  0  0  0  0  0  0
    3.9177   -2.6840   -1.3762 C   0  0  0  0  0  0  0  0  0  0  0  0
    4.3891   -3.6879   -2.2259 C   0  0  0  0  0  0  0  0  0  0  0  0
    3.4964   -4.4763   -2.9468 C   0  0  0  0  0  0  0  0  0  0  0  0
    2.1223   -4.2678   -2.8075 C   0  0  0  0  0  0  0  0  0  0  0  0
    1.6506   -3.2778   -1.9512 C   0  0  0  0  0  0  0  0  0  0  0  0
    3.2262   -0.2521    0.5017 C   0  0  0  0  0  0  0  0  0  0  0  0
    4.0409    0.4901   -0.3653 C   0  0  0  0  0  0  0  0  0  0  0  0
    5.0723    1.2797    0.1371 C   0  0  0  0  0  0  0  0  0  0  0  0
    5.2960    1.3441    1.5146 C   0  0  0  0  0  0  0  0  0  0  0  0
    4.4904    0.6119    2.3845 C   0  0  0  0  0  0  0  0  0  0  0  0
    3.4590   -0.1824    1.8787 C   0  0  0  0  0  0  0  0  0  0  0  0
    1.9507   -0.7982   -3.0657 H   0  0  0  0  0  0  0  0  0  0  0  0
    0.8377    0.8348   -4.5453 H   0  0  0  0  0  0  0  0  0  0  0  0
   -1.1299    2.2890   -4.8574 H   0  0  0  0  0  0  0  0  0  0  0  0
   -0.1215    3.5671   -4.1858 H   0  0  0  0  0  0  0  0  0  0  0  0
   -2.9396    2.7955   -3.2672 H   0  0  0  0  0  0  0  0  0  0  0  0
   -2.4183    4.3246   -3.9992 H   0  0  0  0  0  0  0  0  0  0  0  0
   -0.9027    4.6925   -1.9897 H   0  0  0  0  0  0  0  0  0  0  0  0
   -2.6118    4.6133   -1.5338 H   0  0  0  0  0  0  0  0  0  0  0  0
   -1.1205    3.2169   -0.0315 H   0  0  0  0  0  0  0  0  0  0  0  0
   -2.4216    2.3157   -0.7875 H   0  0  0  0  0  0  0  0  0  0  0  0
   -1.9511   -0.7967    3.0657 H   0  0  0  0  0  0  0  0  0  0  0  0
   -0.8392    0.8377    4.5446 H   0  0  0  0  0  0  0  0  0  0  0  0
    1.1285    2.2922    4.8562 H   0  0  0  0  0  0  0  0  0  0  0  0
    0.1190    3.5693    4.1843 H   0  0  0  0  0  0  0  0  0  0  0  0
    2.9380    2.7999    3.2667 H   0  0  0  0  0  0  0  0  0  0  0  0
    2.4149    4.3291    3.9972 H   0  0  0  0  0  0  0  0  0  0  0  0
    0.8999    4.6939    1.9868 H   0  0  0  0  0  0  0  0  0  0  0  0
    2.6092    4.6159    1.5317 H   0  0  0  0  0  0  0  0  0  0  0  0
    1.1202    3.2169    0.0298 H   0  0  0  0  0  0  0  0  0  0  0  0
    2.4213    2.3173    0.7875 H   0  0  0  0  0  0  0  0  0  0  0  0
   -0.5712   -3.1222    1.8351 H   0  0  0  0  0  0  0  0  0  0  0  0
   -1.4121   -4.8845    3.3656 H   0  0  0  0  0  0  0  0  0  0  0  0
   -3.8643   -5.2561    3.6162 H   0  0  0  0  0  0  0  0  0  0  0  0
   -5.4614   -3.8523    2.3251 H   0  0  0  0  0  0  0  0  0  0  0  0
   -4.6281   -2.0762    0.8177 H   0  0  0  0  0  0  0  0  0  0  0  0
   -2.8121   -0.7456   -2.5576 H   0  0  0  0  0  0  0  0  0  0  0  0
   -4.6606    0.6587   -3.4618 H   0  0  0  0  0  0  0  0  0  0  0  0
   -6.0996    1.9668   -1.9093 H   0  0  0  0  0  0  0  0  0  0  0  0
   -5.6999    1.8542    0.5447 H   0  0  0  0  0  0  0  0  0  0  0  0
   -3.8544    0.4570    1.4417 H   0  0  0  0  0  0  0  0  0  0  0  0
    4.6294   -2.0740   -0.8171 H   0  0  0  0  0  0  0  0  0  0  0  0
    5.4640   -3.8504   -2.3234 H   0  0  0  0  0  0  0  0  0  0  0  0
    3.8677   -5.2562   -3.6134 H   0  0  0  0  0  0  0  0  0  0  0  0
    1.4153   -4.8864   -3.3627 H   0  0  0  0  0  0  0  0  0  0  0  0
    0.5733   -3.1238   -1.8333 H   0  0  0  0  0  0  0  0  0  0  0  0
    3.8537    0.4580   -1.4418 H   0  0  0  0  0  0  0  0  0  0  0  0
    5.6987    1.8564   -0.5456 H   0  0  0  0  0  0  0  0  0  0  0  0
    6.0985    1.9703    1.9084 H   0  0  0  0  0  0  0  0  0  0  0  0
    4.6601    0.6624    3.4616 H   0  0  0  0  0  0  0  0  0  0  0  0
    2.8122   -0.7433    2.5581 H   0  0  0  0  0  0  0  0  0  0  0  0
  1  2  2  0  0  0  0
  1 10  1  0  0  0  0
  1 11  1  0  0  0  0
  2  3  1  0  0  0  0
  2 34  1  0  0  0  0
  3  4  2  0  0  0  0
  3 47  1  0  0  0  0
  4  5  1  0  0  0  0
  4 48  1  0  0  0  0
  5  6  1  0  0  0  0
  5 10  2  0  0  0  0
  6  7  1  0  0  0  0
  6 49  1  0  0  0  0
  6 50  1  0  0  0  0
  7  8  1  0  0  0  0
  7 51  1  0  0  0  0
  7 52  1  0  0  0  0
  8  9  1  0  0  0  0
  8 53  1  0  0  0  0
  8 54  1  0  0  0  0
  9 10  1  0  0  0  0
  9 55  1  0  0  0  0
  9 56  1  0  0  0  0
 11 12  2  0  0  0  0
 11 20  1  0  0  0  0
 12 13  1  0  0  0  0
 12 21  1  0  0  0  0
 13 14  2  0  0  0  0
 13 57  1  0  0  0  0
 14 15  1  0  0  0  0
 14 58  1  0  0  0  0
 15 16  1  0  0  0  0
 15 20  2  0  0  0  0
 16 17  1  0  0  0  0
 16 59  1  0  0  0  0
 16 60  1  0  0  0  0
 17 18  1  0  0  0  0
 17 61  1  0  0  0  0
 17 62  1  0  0  0  0
 18 19  1  0  0  0  0
 18 63  1  0  0  0  0
 18 64  1  0  0  0  0
 19 20  1  0  0  0  0
 19 65  1  0  0  0  0
 19 66  1  0  0  0  0
 21 22  1  0  0  0  0
 21 28  1  0  0  0  0
 22 23  2  0  0  0  0
 22 27  1  0  0  0  0
 23 24  1  0  0  0  0
 23 67  1  0  0  0  0
 24 25  2  0  0  0  0
 24 68  1  0  0  0  0
 25 26  1  0  0  0  0
 25 69  1  0  0  0  0
 26 27  2  0  0  0  0
 26 70  1  0  0  0  0
 27 71  1  0  0  0  0
 28 29  2  0  0  0  0
 28 33  1  0  0  0  0
 29 30  1  0  0  0  0
 29 72  1  0  0  0  0
 30 31  2  0  0  0  0
 30 73  1  0  0  0  0
 31 32  1  0  0  0  0
 31 74  1  0  0  0  0
 32 33  2  0  0  0  0
 32 75  1  0  0  0  0
 33 76  1  0  0  0  0
 34 35  1  0  0  0  0
 34 41  1  0  0  0  0
 35 36  2  0  0  0  0
 35 40  1  0  0  0  0
 36 37  1  0  0  0  0
 36 77  1  0  0  0  0
 37 38  2  0  0  0  0
 37 78  1  0  0  0  0
 38 39  1  0  0  0  0
 38 79  1  0  0  0  0
 39 40  2  0  0  0  0
 39 80  1  0  0  0  0
 40 81  1  0  0  0  0
 41 42  2  0  0  0  0
 41 46  1  0  0  0  0
 42 43  1  0  0  0  0
 42 82  1  0  0  0  0
 43 44  2  0  0  0  0
 43 83  1  0  0  0  0
 44 45  1  0  0  0  0
 44 84  1  0  0  0  0
 45 46  2  0  0  0  0
 45 85  1  0  0  0  0
 46 86  1  0  0  0  0
M  END
$$$$
