Title Card Required
 OpenBabel03192317523D

 60 64  0  0  0  0  0  0  0  0999 V2000
   -1.2025    0.9925    1.9455 C   0  0  0  0  0  0  0  0  0  0  0  0
   -0.8890    3.4032    1.3782 C   0  0  0  0  0  0  0  0  0  0  0  0
    0.3156    2.4174    3.3474 C   0  0  0  0  0  0  0  0  0  0  0  0
   -0.2044    2.1539    1.9307 C   0  0  0  0  0  0  0  0  0  0  0  0
    0.7137    2.7786   -1.3822 C   0  0  0  0  0  0  0  0  0  0  0  0
    0.1676    3.0326   -2.6380 C   0  0  0  0  0  0  0  0  0  0  0  0
   -0.5119    1.9966   -3.2773 C   0  0  0  0  0  0  0  0  0  0  0  0
   -0.6315    0.7374   -2.6890 C   0  0  0  0  0  0  0  0  0  0  0  0
   -0.0777    0.4862   -1.4273 C   0  0  0  0  0  0  0  0  0  0  0  0
    0.5802    1.5284   -0.7648 C   0  0  0  0  0  0  0  0  0  0  0  0
    2.0756    3.1965    0.4219 C   0  0  0  0  0  0  0  0  0  0  0  0
   -0.1684   -0.8724   -0.8213 C   0  0  0  0  0  0  0  0  0  0  0  0
   -3.7281   -0.9640   -0.2792 C   0  0  0  0  0  0  0  0  0  0  0  0
   -3.8645   -1.1404    1.0998 C   0  0  0  0  0  0  0  0  0  0  0  0
   -5.1385   -1.2895    1.6432 C   0  0  0  0  0  0  0  0  0  0  0  0
   -6.2689   -1.2556    0.8261 C   0  0  0  0  0  0  0  0  0  0  0  0
   -6.1194   -1.0714   -0.5476 C   0  0  0  0  0  0  0  0  0  0  0  0
   -4.8503   -0.9291   -1.1051 C   0  0  0  0  0  0  0  0  0  0  0  0
   -1.4073   -1.4780   -0.5555 C   0  0  0  0  0  0  0  0  0  0  0  0
    0.9955   -1.6102   -0.5421 C   0  0  0  0  0  0  0  0  0  0  0  0
    3.3548   -1.4292   -0.3113 C   0  0  0  0  0  0  0  0  0  0  0  0
    4.4073   -1.7620   -1.1603 C   0  0  0  0  0  0  0  0  0  0  0  0
    5.6392   -2.1216   -0.6149 C   0  0  0  0  0  0  0  0  0  0  0  0
    5.8132   -2.1563    0.7676 C   0  0  0  0  0  0  0  0  0  0  0  0
    4.7498   -1.8200    1.6074 C   0  0  0  0  0  0  0  0  0  0  0  0
    3.5177   -1.4496    1.0755 C   0  0  0  0  0  0  0  0  0  0  0  0
    0.9290   -2.8981   -0.0046 C   0  0  0  0  0  0  0  0  0  0  0  0
   -0.3174   -3.4630    0.2446 C   0  0  0  0  0  0  0  0  0  0  0  0
   -1.4916   -2.7689   -0.0291 C   0  0  0  0  0  0  0  0  0  0  0  0
    1.3782    3.7359   -0.6947 O   0  0  0  0  0  0  0  0  0  0  0  0
    2.1760   -1.0242   -0.8853 O   0  0  0  0  0  0  0  0  0  0  0  0
   -2.5128   -0.7415   -0.8728 O   0  0  0  0  0  0  0  0  0  0  0  0
    1.2942    1.5630    0.9223 P   0  0  1  0  0  0  0  0  0  0  0  0
   -2.0254    1.2151    2.6454 H   0  0  0  0  0  0  0  0  0  0  0  0
   -0.7280    0.0474    2.2604 H   0  0  0  0  0  0  0  0  0  0  0  0
   -1.6444    0.8417    0.9480 H   0  0  0  0  0  0  0  0  0  0  0  0
   -1.7487    3.6636    2.0182 H   0  0  0  0  0  0  0  0  0  0  0  0
   -0.2145    4.2711    1.3530 H   0  0  0  0  0  0  0  0  0  0  0  0
   -1.2695    3.2354    0.3599 H   0  0  0  0  0  0  0  0  0  0  0  0
    0.7783    1.5172    3.7796 H   0  0  0  0  0  0  0  0  0  0  0  0
    1.0634    3.2262    3.3618 H   0  0  0  0  0  0  0  0  0  0  0  0
   -0.5162    2.7239    4.0021 H   0  0  0  0  0  0  0  0  0  0  0  0
    0.2832    4.0176   -3.0900 H   0  0  0  0  0  0  0  0  0  0  0  0
   -0.9466    2.1708   -4.2630 H   0  0  0  0  0  0  0  0  0  0  0  0
   -1.1538   -0.0658   -3.2096 H   0  0  0  0  0  0  0  0  0  0  0  0
    2.0624    3.9355    1.2352 H   0  0  0  0  0  0  0  0  0  0  0  0
    3.1240    3.0111    0.1345 H   0  0  0  0  0  0  0  0  0  0  0  0
   -2.9783   -1.1622    1.7350 H   0  0  0  0  0  0  0  0  0  0  0  0
   -5.2464   -1.4268    2.7202 H   0  0  0  0  0  0  0  0  0  0  0  0
   -7.2626   -1.3706    1.2603 H   0  0  0  0  0  0  0  0  0  0  0  0
   -6.9972   -1.0415   -1.1949 H   0  0  0  0  0  0  0  0  0  0  0  0
   -4.7049   -0.7815   -2.1753 H   0  0  0  0  0  0  0  0  0  0  0  0
    4.2414   -1.7281   -2.2372 H   0  0  0  0  0  0  0  0  0  0  0  0
    6.4664   -2.3807   -1.2774 H   0  0  0  0  0  0  0  0  0  0  0  0
    6.7765   -2.4425    1.1915 H   0  0  0  0  0  0  0  0  0  0  0  0
    4.8829   -1.8363    2.6902 H   0  0  0  0  0  0  0  0  0  0  0  0
    2.6813   -1.1628    1.7142 H   0  0  0  0  0  0  0  0  0  0  0  0
    1.8448   -3.4527    0.1949 H   0  0  0  0  0  0  0  0  0  0  0  0
   -0.3761   -4.4752    0.6473 H   0  0  0  0  0  0  0  0  0  0  0  0
   -2.4650   -3.2216    0.1543 H   0  0  0  0  0  0  0  0  0  0  0  0
  1  4  1  0  0  0  0
  1 34  1  0  0  0  0
  1 35  1  0  0  0  0
  1 36  1  0  0  0  0
  2  4  1  0  0  0  0
  2 37  1  0  0  0  0
  2 38  1  0  0  0  0
  2 39  1  0  0  0  0
  3  4  1  0  0  0  0
  3 40  1  0  0  0  0
  3 41  1  0  0  0  0
  3 42  1  0  0  0  0
  5  6  2  0  0  0  0
  5 10  1  0  0  0  0
  5 30  1  0  0  0  0
  6  7  1  0  0  0  0
  6 43  1  0  0  0  0
  7  8  2  0  0  0  0
  7 44  1  0  0  0  0
  8  9  1  0  0  0  0
  8 45  1  0  0  0  0
  9 10  2  0  0  0  0
  9 12  1  0  0  0  0
 10 33  1  0  0  0  0
 11 30  1  0  0  0  0
 11 33  1  0  0  0  0
 11 46  1  0  0  0  0
 11 47  1  0  0  0  0
 12 19  2  0  0  0  0
 12 20  1  0  0  0  0
 13 14  2  0  0  0  0
 13 18  1  0  0  0  0
 13 32  1  0  0  0  0
 14 15  1  0  0  0  0
 14 48  1  0  0  0  0
 15 16  2  0  0  0  0
 15 49  1  0  0  0  0
 16 17  1  0  0  0  0
 16 50  1  0  0  0  0
 17 18  2  0  0  0  0
 17 51  1  0  0  0  0
 18 52  1  0  0  0  0
 19 29  1  0  0  0  0
 19 32  1  0  0  0  0
 20 27  2  0  0  0  0
 20 31  1  0  0  0  0
 21 22  2  0  0  0  0
 21 26  1  0  0  0  0
 21 31  1  0  0  0  0
 22 23  1  0  0  0  0
 22 53  1  0  0  0  0
 23 24  2  0  0  0  0
 23 54  1  0  0  0  0
 24 25  1  0  0  0  0
 24 55  1  0  0  0  0
 25 26  2  0  0  0  0
 25 56  1  0  0  0  0
 26 57  1  0  0  0  0
 27 28  1  0  0  0  0
 27 58  1  0  0  0  0
 28 29  2  0  0  0  0
 28 59  1  0  0  0  0
 29 60  1  0  0  0  0
 33  4  1  1  0  0  0
M  END
$$$$
