Title Card Required
 OpenBabel03192317463D

 70 76  0  0  0  0  0  0  0  0999 V2000
   -0.4446    0.5779    2.1934 O   0  0  0  0  0  0  0  0  0  0  0  0
    0.5102    1.8014    1.5484 P   0  0  0  0  0  0  0  0  0  0  0  0
   -0.2460    1.8745    0.0385 O   0  0  0  0  0  0  0  0  0  0  0  0
   -1.6115    1.9121   -0.0508 C   0  0  0  0  0  0  0  0  0  0  0  0
   -2.3473    0.7552    0.1291 C   0  0  0  0  0  0  0  0  0  0  0  0
   -1.6452   -0.5197    0.4414 C   0  0  0  0  0  0  0  0  0  0  0  0
   -0.7681   -0.5628    1.5125 C   0  0  0  0  0  0  0  0  0  0  0  0
   -2.2173    3.1517   -0.3677 C   0  0  0  0  0  0  0  0  0  0  0  0
   -3.5776    3.2308   -0.4958 C   0  0  0  0  0  0  0  0  0  0  0  0
   -4.3921    2.0875   -0.2713 C   0  0  0  0  0  0  0  0  0  0  0  0
   -5.8088    2.1717   -0.3513 C   0  0  0  0  0  0  0  0  0  0  0  0
   -6.5967    1.0802   -0.0846 C   0  0  0  0  0  0  0  0  0  0  0  0
   -5.9945   -0.1452    0.2893 C   0  0  0  0  0  0  0  0  0  0  0  0
   -4.6275   -0.2615    0.3639 C   0  0  0  0  0  0  0  0  0  0  0  0
   -3.7802    0.8437    0.0665 C   0  0  0  0  0  0  0  0  0  0  0  0
   -0.1985   -1.7782    1.9649 C   0  0  0  0  0  0  0  0  0  0  0  0
   -0.4468   -2.9429    1.2920 C   0  0  0  0  0  0  0  0  0  0  0  0
   -1.2317   -2.9353    0.1069 C   0  0  0  0  0  0  0  0  0  0  0  0
   -1.4057   -4.1153   -0.6650 C   0  0  0  0  0  0  0  0  0  0  0  0
   -2.1295   -4.0962   -1.8315 C   0  0  0  0  0  0  0  0  0  0  0  0
   -2.7128   -2.8851   -2.2769 C   0  0  0  0  0  0  0  0  0  0  0  0
   -2.5721   -1.7296   -1.5462 C   0  0  0  0  0  0  0  0  0  0  0  0
   -1.8334   -1.7175   -0.3290 C   0  0  0  0  0  0  0  0  0  0  0  0
    1.9353    1.0807    1.0050 N   0  0  0  0  0  0  0  0  0  0  0  0
    3.2046    1.5909    1.5774 C   0  0  0  0  0  0  0  0  0  0  0  0
    3.5669    2.9889    1.0733 C   0  0  0  0  0  0  0  0  0  0  0  0
    3.1914    1.5626    3.1074 C   0  0  0  0  0  0  0  0  0  0  0  0
    2.0070    0.1911   -0.1654 C   0  0  0  0  0  0  0  0  0  0  0  0
    2.8622    0.8097   -1.2697 C   0  0  0  0  0  0  0  0  0  0  0  0
    4.1922    0.4395   -1.4811 C   0  0  0  0  0  0  0  0  0  0  0  0
    4.9654    1.0970   -2.4397 C   0  0  0  0  0  0  0  0  0  0  0  0
    4.4106    2.1196   -3.2061 C   0  0  0  0  0  0  0  0  0  0  0  0
    3.0757    2.4808   -3.0138 C   0  0  0  0  0  0  0  0  0  0  0  0
    2.3085    1.8311   -2.0506 C   0  0  0  0  0  0  0  0  0  0  0  0
    2.4000   -1.2477    0.1365 C   0  0  0  0  0  0  0  0  0  0  0  0
    2.9766   -1.6643    1.3366 C   0  0  0  0  0  0  0  0  0  0  0  0
    3.2804   -3.0106    1.5513 C   0  0  0  0  0  0  0  0  0  0  0  0
    3.0067   -3.9582    0.5683 C   0  0  0  0  0  0  0  0  0  0  0  0
    2.4295   -3.5508   -0.6362 C   0  0  0  0  0  0  0  0  0  0  0  0
    2.1333   -2.2080   -0.8475 C   0  0  0  0  0  0  0  0  0  0  0  0
   -1.5694    4.0166   -0.5125 H   0  0  0  0  0  0  0  0  0  0  0  0
   -4.0567    4.1776   -0.7526 H   0  0  0  0  0  0  0  0  0  0  0  0
   -6.2581    3.1299   -0.6210 H   0  0  0  0  0  0  0  0  0  0  0  0
   -7.6831    1.1568   -0.1451 H   0  0  0  0  0  0  0  0  0  0  0  0
   -6.6219   -1.0049    0.5291 H   0  0  0  0  0  0  0  0  0  0  0  0
   -4.1793   -1.2078    0.6665 H   0  0  0  0  0  0  0  0  0  0  0  0
    0.4400   -1.7461    2.8474 H   0  0  0  0  0  0  0  0  0  0  0  0
   -0.0088   -3.8831    1.6331 H   0  0  0  0  0  0  0  0  0  0  0  0
   -0.9378   -5.0377   -0.3137 H   0  0  0  0  0  0  0  0  0  0  0  0
   -2.2507   -5.0072   -2.4194 H   0  0  0  0  0  0  0  0  0  0  0  0
   -3.2755   -2.8676   -3.2115 H   0  0  0  0  0  0  0  0  0  0  0  0
   -3.0189   -0.8009   -1.9033 H   0  0  0  0  0  0  0  0  0  0  0  0
    3.9820    0.8930    1.2306 H   0  0  0  0  0  0  0  0  0  0  0  0
    2.7943    3.7122    1.3789 H   0  0  0  0  0  0  0  0  0  0  0  0
    4.5235    3.3139    1.5084 H   0  0  0  0  0  0  0  0  0  0  0  0
    3.6578    3.0135   -0.0203 H   0  0  0  0  0  0  0  0  0  0  0  0
    2.8554    0.5898    3.4936 H   0  0  0  0  0  0  0  0  0  0  0  0
    4.1981    1.7689    3.4983 H   0  0  0  0  0  0  0  0  0  0  0  0
    2.5141    2.3319    3.5070 H   0  0  0  0  0  0  0  0  0  0  0  0
    0.9867    0.1430   -0.5673 H   0  0  0  0  0  0  0  0  0  0  0  0
    4.6272   -0.3725   -0.8935 H   0  0  0  0  0  0  0  0  0  0  0  0
    6.0058    0.8040   -2.5900 H   0  0  0  0  0  0  0  0  0  0  0  0
    5.0141    2.6312   -3.9574 H   0  0  0  0  0  0  0  0  0  0  0  0
    2.6318    3.2743   -3.6174 H   0  0  0  0  0  0  0  0  0  0  0  0
    1.2709    2.1234   -1.8732 H   0  0  0  0  0  0  0  0  0  0  0  0
    3.1620   -0.9410    2.1295 H   0  0  0  0  0  0  0  0  0  0  0  0
    3.7278   -3.3184    2.4981 H   0  0  0  0  0  0  0  0  0  0  0  0
    3.2406   -5.0104    0.7385 H   0  0  0  0  0  0  0  0  0  0  0  0
    2.2002   -4.2843   -1.4113 H   0  0  0  0  0  0  0  0  0  0  0  0
    1.6698   -1.8955   -1.7873 H   0  0  0  0  0  0  0  0  0  0  0  0
  1  2  1  0  0  0  0
  1  7  1  0  0  0  0
  2  3  1  0  0  0  0
  2 24  1  0  0  0  0
  3  4  1  0  0  0  0
  4  5  2  0  0  0  0
  4  8  1  0  0  0  0
  5  6  1  0  0  0  0
  5 15  1  0  0  0  0
  6  7  2  0  0  0  0
  6 23  1  0  0  0  0
  7 16  1  0  0  0  0
  8  9  2  0  0  0  0
  8 41  1  0  0  0  0
  9 10  1  0  0  0  0
  9 42  1  0  0  0  0
 10 11  2  0  0  0  0
 10 15  1  0  0  0  0
 11 12  1  0  0  0  0
 11 43  1  0  0  0  0
 12 13  2  0  0  0  0
 12 44  1  0  0  0  0
 13 14  1  0  0  0  0
 13 45  1  0  0  0  0
 14 15  2  0  0  0  0
 14 46  1  0  0  0  0
 16 17  2  0  0  0  0
 16 47  1  0  0  0  0
 17 18  1  0  0  0  0
 17 48  1  0  0  0  0
 18 19  2  0  0  0  0
 18 23  1  0  0  0  0
 19 20  1  0  0  0  0
 19 49  1  0  0  0  0
 20 21  2  0  0  0  0
 20 50  1  0  0  0  0
 21 22  1  0  0  0  0
 21 51  1  0  0  0  0
 22 23  2  0  0  0  0
 22 52  1  0  0  0  0
 24 25  1  0  0  0  0
 24 28  1  0  0  0  0
 25 26  1  0  0  0  0
 25 27  1  0  0  0  0
 25 53  1  0  0  0  0
 26 54  1  0  0  0  0
 26 55  1  0  0  0  0
 26 56  1  0  0  0  0
 27 57  1  0  0  0  0
 27 58  1  0  0  0  0
 27 59  1  0  0  0  0
 28 29  1  0  0  0  0
 28 35  1  0  0  0  0
 28 60  1  0  0  0  0
 29 30  2  0  0  0  0
 29 34  1  0  0  0  0
 30 31  1  0  0  0  0
 30 61  1  0  0  0  0
 31 32  2  0  0  0  0
 31 62  1  0  0  0  0
 32 33  1  0  0  0  0
 32 63  1  0  0  0  0
 33 34  2  0  0  0  0
 33 64  1  0  0  0  0
 34 65  1  0  0  0  0
 35 36  2  0  0  0  0
 35 40  1  0  0  0  0
 36 37  1  0  0  0  0
 36 66  1  0  0  0  0
 37 38  2  0  0  0  0
 37 67  1  0  0  0  0
 38 39  1  0  0  0  0
 38 68  1  0  0  0  0
 39 40  2  0  0  0  0
 39 69  1  0  0  0  0
 40 70  1  0  0  0  0
M  END
$$$$
