Title Card Required
 OpenBabel03192317403D

 70 71  0  0  0  0  0  0  0  0999 V2000
   -0.1262    0.3759    0.9465 C   0  0  0  0  0  0  0  0  0  0  0  0
    1.0863   -0.3283    1.0901 C   0  0  0  0  0  0  0  0  0  0  0  0
    1.2599   -1.0997    2.2544 C   0  0  0  0  0  0  0  0  0  0  0  0
    0.3095   -1.1054    3.2687 C   0  0  0  0  0  0  0  0  0  0  0  0
   -0.8415   -0.3295    3.1729 C   0  0  0  0  0  0  0  0  0  0  0  0
   -1.0541    0.4102    2.0070 C   0  0  0  0  0  0  0  0  0  0  0  0
   -0.4490    1.1810   -0.2678 C   0  0  0  0  0  0  0  0  0  0  0  0
   -1.3392    0.7551   -1.2682 C   0  0  0  0  0  0  0  0  0  0  0  0
   -1.5545    1.5932   -2.3762 C   0  0  0  0  0  0  0  0  0  0  0  0
   -0.9102    2.8191   -2.4893 C   0  0  0  0  0  0  0  0  0  0  0  0
   -0.0371    3.2514   -1.4942 C   0  0  0  0  0  0  0  0  0  0  0  0
    0.1721    2.4434   -0.3741 C   0  0  0  0  0  0  0  0  0  0  0  0
    0.9527    2.8061    0.6659 O   0  0  0  0  0  0  0  0  0  0  0  0
    1.8905    3.8303    0.4695 C   0  0  0  0  0  0  0  0  0  0  0  0
   -2.1256    1.2176    1.8284 O   0  0  0  0  0  0  0  0  0  0  0  0
   -3.1009    1.2770    2.8335 C   0  0  0  0  0  0  0  0  0  0  0  0
   -2.2828   -0.8517   -1.4208 P   0  0  0  0  0  0  0  0  0  0  0  0
   -1.1511   -2.2223   -0.7503 C   0  0  0  0  0  0  0  0  0  0  0  0
   -1.5066   -2.8398    0.5992 C   0  0  0  0  0  0  0  0  0  0  0  0
   -1.0507   -3.3052   -1.8290 C   0  0  0  0  0  0  0  0  0  0  0  0
   -3.6543   -0.6822   -0.1523 C   0  0  0  0  0  0  0  0  0  0  0  0
   -4.3230    0.6851   -0.2873 C   0  0  0  0  0  0  0  0  0  0  0  0
   -4.6779   -1.7925   -0.4073 C   0  0  0  0  0  0  0  0  0  0  0  0
    2.5270    0.0721   -0.0539 P   0  0  0  0  0  0  0  0  0  0  0  0
    3.9453   -0.6804    0.9362 C   0  0  0  0  0  0  0  0  0  0  0  0
    4.1159   -2.2016    0.8804 C   0  0  0  0  0  0  0  0  0  0  0  0
    5.2637    0.0469    0.6481 C   0  0  0  0  0  0  0  0  0  0  0  0
    2.4504   -1.0346   -1.5831 C   0  0  0  0  0  0  0  0  0  0  0  0
    1.4030   -0.5395   -2.5820 C   0  0  0  0  0  0  0  0  0  0  0  0
    3.8147   -0.9692   -2.2813 C   0  0  0  0  0  0  0  0  0  0  0  0
    2.1602   -1.6904    2.4018 H   0  0  0  0  0  0  0  0  0  0  0  0
    0.4792   -1.7084    4.1623 H   0  0  0  0  0  0  0  0  0  0  0  0
   -1.5576   -0.3093    3.9925 H   0  0  0  0  0  0  0  0  0  0  0  0
   -2.2220    1.2543   -3.1704 H   0  0  0  0  0  0  0  0  0  0  0  0
   -1.0835    3.4477   -3.3644 H   0  0  0  0  0  0  0  0  0  0  0  0
    0.4626    4.2148   -1.5852 H   0  0  0  0  0  0  0  0  0  0  0  0
    2.5233    3.6161   -0.4080 H   0  0  0  0  0  0  0  0  0  0  0  0
    1.4052    4.8126    0.3428 H   0  0  0  0  0  0  0  0  0  0  0  0
    2.5177    3.8586    1.3679 H   0  0  0  0  0  0  0  0  0  0  0  0
   -3.5657    0.2900    3.0036 H   0  0  0  0  0  0  0  0  0  0  0  0
   -2.6804    1.6452    3.7839 H   0  0  0  0  0  0  0  0  0  0  0  0
   -3.8673    1.9776    2.4834 H   0  0  0  0  0  0  0  0  0  0  0  0
   -0.1623   -1.7586   -0.6380 H   0  0  0  0  0  0  0  0  0  0  0  0
   -2.4762   -3.3587    0.5733 H   0  0  0  0  0  0  0  0  0  0  0  0
   -0.7447   -3.5890    0.8679 H   0  0  0  0  0  0  0  0  0  0  0  0
   -1.5330   -2.0970    1.4046 H   0  0  0  0  0  0  0  0  0  0  0  0
   -0.7098   -2.8913   -2.7893 H   0  0  0  0  0  0  0  0  0  0  0  0
   -0.3461   -4.0942   -1.5206 H   0  0  0  0  0  0  0  0  0  0  0  0
   -2.0312   -3.7763   -2.0042 H   0  0  0  0  0  0  0  0  0  0  0  0
   -3.2384   -0.7859    0.8617 H   0  0  0  0  0  0  0  0  0  0  0  0
   -4.7017    0.8315   -1.3122 H   0  0  0  0  0  0  0  0  0  0  0  0
   -5.1854    0.7516    0.3963 H   0  0  0  0  0  0  0  0  0  0  0  0
   -3.6251    1.5001   -0.0561 H   0  0  0  0  0  0  0  0  0  0  0  0
   -4.2336   -2.7973   -0.3776 H   0  0  0  0  0  0  0  0  0  0  0  0
   -5.4809   -1.7563    0.3458 H   0  0  0  0  0  0  0  0  0  0  0  0
   -5.1350   -1.6632   -1.4004 H   0  0  0  0  0  0  0  0  0  0  0  0
    3.6720   -0.4009    1.9652 H   0  0  0  0  0  0  0  0  0  0  0  0
    4.5728   -2.5234   -0.0655 H   0  0  0  0  0  0  0  0  0  0  0  0
    4.7817   -2.5410    1.6900 H   0  0  0  0  0  0  0  0  0  0  0  0
    3.1632   -2.7409    0.9772 H   0  0  0  0  0  0  0  0  0  0  0  0
    5.1500    1.1326    0.7755 H   0  0  0  0  0  0  0  0  0  0  0  0
    6.0443   -0.3005    1.3434 H   0  0  0  0  0  0  0  0  0  0  0  0
    5.6284   -0.1316   -0.3727 H   0  0  0  0  0  0  0  0  0  0  0  0
    2.2322   -2.0767   -1.2942 H   0  0  0  0  0  0  0  0  0  0  0  0
    1.5155    0.5420   -2.7641 H   0  0  0  0  0  0  0  0  0  0  0  0
    1.5306   -1.0635   -3.5423 H   0  0  0  0  0  0  0  0  0  0  0  0
    0.3766   -0.7057   -2.2495 H   0  0  0  0  0  0  0  0  0  0  0  0
    4.6300   -1.4143   -1.7011 H   0  0  0  0  0  0  0  0  0  0  0  0
    3.7601   -1.5042   -3.2415 H   0  0  0  0  0  0  0  0  0  0  0  0
    4.0824    0.0775   -2.4994 H   0  0  0  0  0  0  0  0  0  0  0  0
  1  2  2  0  0  0  0
  1  6  1  0  0  0  0
  1  7  1  0  0  0  0
  2  3  1  0  0  0  0
  2 24  1  0  0  0  0
  3  4  2  0  0  0  0
  3 31  1  0  0  0  0
  4  5  1  0  0  0  0
  4 32  1  0  0  0  0
  5  6  2  0  0  0  0
  5 33  1  0  0  0  0
  6 15  1  0  0  0  0
  7  8  2  0  0  0  0
  7 12  1  0  0  0  0
  8  9  1  0  0  0  0
  8 17  1  0  0  0  0
  9 10  2  0  0  0  0
  9 34  1  0  0  0  0
 10 11  1  0  0  0  0
 10 35  1  0  0  0  0
 11 12  2  0  0  0  0
 11 36  1  0  0  0  0
 12 13  1  0  0  0  0
 13 14  1  0  0  0  0
 14 37  1  0  0  0  0
 14 38  1  0  0  0  0
 14 39  1  0  0  0  0
 15 16  1  0  0  0  0
 16 40  1  0  0  0  0
 16 41  1  0  0  0  0
 16 42  1  0  0  0  0
 17 18  1  0  0  0  0
 17 21  1  0  0  0  0
 18 19  1  0  0  0  0
 18 20  1  0  0  0  0
 18 43  1  0  0  0  0
 19 44  1  0  0  0  0
 19 45  1  0  0  0  0
 19 46  1  0  0  0  0
 20 47  1  0  0  0  0
 20 48  1  0  0  0  0
 20 49  1  0  0  0  0
 21 22  1  0  0  0  0
 21 23  1  0  0  0  0
 21 50  1  0  0  0  0
 22 51  1  0  0  0  0
 22 52  1  0  0  0  0
 22 53  1  0  0  0  0
 23 54  1  0  0  0  0
 23 55  1  0  0  0  0
 23 56  1  0  0  0  0
 24 25  1  0  0  0  0
 24 28  1  0  0  0  0
 25 26  1  0  0  0  0
 25 27  1  0  0  0  0
 25 57  1  0  0  0  0
 26 58  1  0  0  0  0
 26 59  1  0  0  0  0
 26 60  1  0  0  0  0
 27 61  1  0  0  0  0
 27 62  1  0  0  0  0
 27 63  1  0  0  0  0
 28 29  1  0  0  0  0
 28 30  1  0  0  0  0
 28 64  1  0  0  0  0
 29 65  1  0  0  0  0
 29 66  1  0  0  0  0
 29 67  1  0  0  0  0
 30 68  1  0  0  0  0
 30 69  1  0  0  0  0
 30 70  1  0  0  0  0
M  END
$$$$
