Title Card Required
 OpenBabel03192317513D

 59 64  0  0  1  0  0  0  0  0999 V2000
   -2.6510   -1.2760   -0.4555 C   0  0  1  0  0  0  0  0  0  0  0  0
   -0.9746   -0.5807   -1.0168 P   0  0  1  0  0  0  0  0  0  0  0  0
   -0.4043   -0.9263    0.6991 C   0  0  0  0  0  0  0  0  0  0  0  0
    0.7443   -0.4767    1.3655 C   0  0  0  0  0  0  0  0  0  0  0  0
    1.7135    0.4427    0.6973 C   0  0  0  0  0  0  0  0  0  0  0  0
    1.3094    1.7562    0.3683 C   0  0  0  0  0  0  0  0  0  0  0  0
    0.0074    2.2687    0.6891 C   0  0  0  0  0  0  0  0  0  0  0  0
   -0.3575    3.5383    0.3421 C   0  0  0  0  0  0  0  0  0  0  0  0
    0.5511    4.3972   -0.3462 C   0  0  0  0  0  0  0  0  0  0  0  0
    1.8065    3.9585   -0.6505 C   0  0  0  0  0  0  0  0  0  0  0  0
    2.2301    2.6351   -0.3000 C   0  0  0  0  0  0  0  0  0  0  0  0
    3.5213    2.1893   -0.5897 C   0  0  0  0  0  0  0  0  0  0  0  0
    3.9426    0.9038   -0.2428 C   0  0  0  0  0  0  0  0  0  0  0  0
    3.0261    0.0091    0.4113 C   0  0  0  0  0  0  0  0  0  0  0  0
    3.4895   -1.3143    0.7217 C   0  0  0  0  0  0  0  0  0  0  0  0
    4.7636   -1.7067    0.4217 C   0  0  0  0  0  0  0  0  0  0  0  0
    5.6740   -0.8090   -0.2127 C   0  0  0  0  0  0  0  0  0  0  0  0
    5.2710    0.4541   -0.5360 C   0  0  0  0  0  0  0  0  0  0  0  0
    0.9508   -0.8744    2.6946 C   0  0  0  0  0  0  0  0  0  0  0  0
    0.0288   -1.6953    3.3444 C   0  0  0  0  0  0  0  0  0  0  0  0
   -1.1321   -2.1223    2.7016 C   0  0  0  0  0  0  0  0  0  0  0  0
   -1.3375   -1.7138    1.3862 C   0  0  0  0  0  0  0  0  0  0  0  0
   -2.4653   -2.0548    0.7183 O   0  0  0  0  0  0  0  0  0  0  0  0
   -3.6101   -0.1349   -0.2081 C   0  0  0  0  0  0  0  0  0  0  0  0
   -0.2818   -2.0686   -1.9685 C   0  0  0  0  0  0  0  0  0  0  0  0
   -0.9666   -2.0358   -3.3395 C   0  0  0  0  0  0  0  0  0  0  0  0
    1.2196   -1.8178   -2.1365 C   0  0  0  0  0  0  0  0  0  0  0  0
   -0.5066   -3.4207   -1.2938 C   0  0  0  0  0  0  0  0  0  0  0  0
   -3.0710   -1.9193   -1.2415 H   0  0  0  0  0  0  0  0  0  0  0  0
   -4.0530    0.4749   -1.3077 N   0  0  0  0  0  0  0  0  0  0  0  0
   -4.8697    1.5123   -1.1682 C   0  0  0  0  0  0  0  0  0  0  0  0
   -5.2841    2.0015    0.0724 C   0  0  0  0  0  0  0  0  0  0  0  0
   -4.8237    1.3581    1.2172 C   0  0  0  0  0  0  0  0  0  0  0  0
   -3.9726    0.2633    1.0818 C   0  0  0  0  0  0  0  0  0  0  0  0
   -0.6975    1.6298    1.2212 H   0  0  0  0  0  0  0  0  0  0  0  0
   -1.3551    3.9008    0.5944 H   0  0  0  0  0  0  0  0  0  0  0  0
    0.2387    5.4058   -0.6205 H   0  0  0  0  0  0  0  0  0  0  0  0
    2.5163    4.6083   -1.1664 H   0  0  0  0  0  0  0  0  0  0  0  0
    4.2184    2.8623   -1.0950 H   0  0  0  0  0  0  0  0  0  0  0  0
    2.8029   -2.0157    1.1969 H   0  0  0  0  0  0  0  0  0  0  0  0
    5.0899   -2.7188    0.6659 H   0  0  0  0  0  0  0  0  0  0  0  0
    6.6879   -1.1397   -0.4419 H   0  0  0  0  0  0  0  0  0  0  0  0
    5.9542    1.1495   -1.0280 H   0  0  0  0  0  0  0  0  0  0  0  0
    1.8401   -0.5230    3.2206 H   0  0  0  0  0  0  0  0  0  0  0  0
    0.2075   -1.9904    4.3797 H   0  0  0  0  0  0  0  0  0  0  0  0
   -1.8765   -2.7441    3.1988 H   0  0  0  0  0  0  0  0  0  0  0  0
   -0.7844   -1.0810   -3.8549 H   0  0  0  0  0  0  0  0  0  0  0  0
   -0.5716   -2.8482   -3.9706 H   0  0  0  0  0  0  0  0  0  0  0  0
   -2.0563   -2.1740   -3.2607 H   0  0  0  0  0  0  0  0  0  0  0  0
    1.7469   -1.8851   -1.1740 H   0  0  0  0  0  0  0  0  0  0  0  0
    1.6499   -2.5782   -2.8088 H   0  0  0  0  0  0  0  0  0  0  0  0
    1.4238   -0.8249   -2.5676 H   0  0  0  0  0  0  0  0  0  0  0  0
   -0.0294   -3.4599   -0.3029 H   0  0  0  0  0  0  0  0  0  0  0  0
   -1.5744   -3.6514   -1.1678 H   0  0  0  0  0  0  0  0  0  0  0  0
   -0.0609   -4.2172   -1.9128 H   0  0  0  0  0  0  0  0  0  0  0  0
   -5.2182    1.9853   -2.0917 H   0  0  0  0  0  0  0  0  0  0  0  0
   -5.9531    2.8601    0.1307 H   0  0  0  0  0  0  0  0  0  0  0  0
   -5.1272    1.7004    2.2082 H   0  0  0  0  0  0  0  0  0  0  0  0
   -3.6003   -0.2797    1.9502 H   0  0  0  0  0  0  0  0  0  0  0  0
  1  2  1  0  0  0  0
  1 23  1  0  0  0  0
  1 24  1  0  0  0  0
  1 29  1  6  0  0  0
  2  3  1  0  0  0  0
  2 25  1  6  0  0  0
  3  4  2  0  0  0  0
  3 22  1  0  0  0  0
  4  5  1  0  0  0  0
  4 19  1  0  0  0  0
  5  6  2  0  0  0  0
  5 14  1  0  0  0  0
  6  7  1  0  0  0  0
  6 11  1  0  0  0  0
  7  8  2  0  0  0  0
  7 35  1  0  0  0  0
  8  9  1  0  0  0  0
  8 36  1  0  0  0  0
  9 10  2  0  0  0  0
  9 37  1  0  0  0  0
 10 11  1  0  0  0  0
 10 38  1  0  0  0  0
 11 12  2  0  0  0  0
 12 13  1  0  0  0  0
 12 39  1  0  0  0  0
 13 14  2  0  0  0  0
 13 18  1  0  0  0  0
 14 15  1  0  0  0  0
 15 16  2  0  0  0  0
 15 40  1  0  0  0  0
 16 17  1  0  0  0  0
 16 41  1  0  0  0  0
 17 18  2  0  0  0  0
 17 42  1  0  0  0  0
 18 43  1  0  0  0  0
 19 20  2  0  0  0  0
 19 44  1  0  0  0  0
 20 21  1  0  0  0  0
 20 45  1  0  0  0  0
 21 22  2  0  0  0  0
 21 46  1  0  0  0  0
 22 23  1  0  0  0  0
 24 30  2  0  0  0  0
 24 34  1  0  0  0  0
 25 26  1  0  0  0  0
 25 27  1  0  0  0  0
 25 28  1  0  0  0  0
 26 47  1  0  0  0  0
 26 48  1  0  0  0  0
 26 49  1  0  0  0  0
 27 50  1  0  0  0  0
 27 51  1  0  0  0  0
 27 52  1  0  0  0  0
 28 53  1  0  0  0  0
 28 54  1  0  0  0  0
 28 55  1  0  0  0  0
 30 31  1  0  0  0  0
 31 32  2  0  0  0  0
 31 56  1  0  0  0  0
 32 33  1  0  0  0  0
 32 57  1  0  0  0  0
 33 34  2  0  0  0  0
 33 58  1  0  0  0  0
 34 59  1  0  0  0  0
M  END
$$$$
