Title Card Required
 OpenBabel03192317403D

 44 48  0  0  0  0  0  0  0  0999 V2000
    1.5905   -0.9006   -1.4600 O   0  0  0  0  0  0  0  0  0  0  0  0
    2.3320   -1.9497   -0.3640 P   0  0  0  0  0  0  0  0  0  0  0  0
    1.2582   -1.6792    0.9055 O   0  0  0  0  0  0  0  0  0  0  0  0
   -0.0890   -1.7424    0.6731 C   0  0  0  0  0  0  0  0  0  0  0  0
   -0.7362   -0.6781    0.0703 C   0  0  0  0  0  0  0  0  0  0  0  0
    0.0598    0.5208   -0.3070 C   0  0  0  0  0  0  0  0  0  0  0  0
    1.1873    0.3504   -1.0918 C   0  0  0  0  0  0  0  0  0  0  0  0
   -0.7819   -2.9055    1.0879 C   0  0  0  0  0  0  0  0  0  0  0  0
   -2.1322   -3.0029    0.8828 C   0  0  0  0  0  0  0  0  0  0  0  0
   -2.8412   -1.9632    0.2215 C   0  0  0  0  0  0  0  0  0  0  0  0
   -4.2337   -2.0761   -0.0410 C   0  0  0  0  0  0  0  0  0  0  0  0
   -4.9061   -1.0908   -0.7194 C   0  0  0  0  0  0  0  0  0  0  0  0
   -4.2053    0.0515   -1.1766 C   0  0  0  0  0  0  0  0  0  0  0  0
   -2.8612    0.1945   -0.9298 C   0  0  0  0  0  0  0  0  0  0  0  0
   -2.1391   -0.7976   -0.2075 C   0  0  0  0  0  0  0  0  0  0  0  0
    1.9659    1.4498   -1.5315 C   0  0  0  0  0  0  0  0  0  0  0  0
    1.6300    2.7212   -1.1511 C   0  0  0  0  0  0  0  0  0  0  0  0
    0.5244    2.9494   -0.2864 C   0  0  0  0  0  0  0  0  0  0  0  0
    0.2013    4.2582    0.1641 C   0  0  0  0  0  0  0  0  0  0  0  0
   -0.8399    4.4684    1.0336 C   0  0  0  0  0  0  0  0  0  0  0  0
   -1.5991    3.3680    1.4994 C   0  0  0  0  0  0  0  0  0  0  0  0
   -1.3191    2.0923    1.0729 C   0  0  0  0  0  0  0  0  0  0  0  0
   -0.2615    1.8423    0.1527 C   0  0  0  0  0  0  0  0  0  0  0  0
    3.6126   -1.1140    0.3164 N   0  0  0  0  0  0  0  0  0  0  0  0
    3.5285    0.0664    1.1595 C   0  0  0  0  0  0  0  0  0  0  0  0
    4.9606   -1.5413   -0.0002 C   0  0  0  0  0  0  0  0  0  0  0  0
   -0.2113   -3.6962    1.5759 H   0  0  0  0  0  0  0  0  0  0  0  0
   -2.6798   -3.8898    1.2078 H   0  0  0  0  0  0  0  0  0  0  0  0
   -4.7567   -2.9713    0.3021 H   0  0  0  0  0  0  0  0  0  0  0  0
   -5.9741   -1.1896   -0.9180 H   0  0  0  0  0  0  0  0  0  0  0  0
   -4.7360    0.8234   -1.7359 H   0  0  0  0  0  0  0  0  0  0  0  0
   -2.3309    1.0735   -1.2966 H   0  0  0  0  0  0  0  0  0  0  0  0
    2.8233    1.2419   -2.1727 H   0  0  0  0  0  0  0  0  0  0  0  0
    2.2192    3.5758   -1.4900 H   0  0  0  0  0  0  0  0  0  0  0  0
    0.8071    5.0948   -0.1904 H   0  0  0  0  0  0  0  0  0  0  0  0
   -1.0766    5.4768    1.3757 H   0  0  0  0  0  0  0  0  0  0  0  0
   -2.4102    3.5330    2.2102 H   0  0  0  0  0  0  0  0  0  0  0  0
   -1.9052    1.2526    1.4469 H   0  0  0  0  0  0  0  0  0  0  0  0
    4.0648   -0.1116    2.1069 H   0  0  0  0  0  0  0  0  0  0  0  0
    3.9809    0.9415    0.6629 H   0  0  0  0  0  0  0  0  0  0  0  0
    2.4825    0.2947    1.3937 H   0  0  0  0  0  0  0  0  0  0  0  0
    5.5309   -1.7429    0.9223 H   0  0  0  0  0  0  0  0  0  0  0  0
    4.9357   -2.4633   -0.5977 H   0  0  0  0  0  0  0  0  0  0  0  0
    5.5043   -0.7725   -0.5758 H   0  0  0  0  0  0  0  0  0  0  0  0
  1  2  1  0  0  0  0
  1  7  1  0  0  0  0
  2  3  1  0  0  0  0
  2 24  1  0  0  0  0
  3  4  1  0  0  0  0
  4  5  2  0  0  0  0
  4  8  1  0  0  0  0
  5  6  1  0  0  0  0
  5 15  1  0  0  0  0
  6  7  2  0  0  0  0
  6 23  1  0  0  0  0
  7 16  1  0  0  0  0
  8  9  2  0  0  0  0
  8 27  1  0  0  0  0
  9 10  1  0  0  0  0
  9 28  1  0  0  0  0
 10 11  2  0  0  0  0
 10 15  1  0  0  0  0
 11 12  1  0  0  0  0
 11 29  1  0  0  0  0
 12 13  2  0  0  0  0
 12 30  1  0  0  0  0
 13 14  1  0  0  0  0
 13 31  1  0  0  0  0
 14 15  2  0  0  0  0
 14 32  1  0  0  0  0
 16 17  2  0  0  0  0
 16 33  1  0  0  0  0
 17 18  1  0  0  0  0
 17 34  1  0  0  0  0
 18 19  2  0  0  0  0
 18 23  1  0  0  0  0
 19 20  1  0  0  0  0
 19 35  1  0  0  0  0
 20 21  2  0  0  0  0
 20 36  1  0  0  0  0
 21 22  1  0  0  0  0
 21 37  1  0  0  0  0
 22 23  2  0  0  0  0
 22 38  1  0  0  0  0
 24 25  1  0  0  0  0
 24 26  1  0  0  0  0
 25 39  1  0  0  0  0
 25 40  1  0  0  0  0
 25 41  1  0  0  0  0
 26 42  1  0  0  0  0
 26 43  1  0  0  0  0
 26 44  1  0  0  0  0
M  END
$$$$
