Title Card Required
 OpenBabel03192317413D

 38 39  0  0  1  0  0  0  0  0999 V2000
    1.7429   -0.5652    0.0517 C   0  0  0  0  0  0  0  0  0  0  0  0
    2.4328   -0.2463    1.2213 C   0  0  0  0  0  0  0  0  0  0  0  0
    3.6242    0.4601    1.1243 C   0  0  0  0  0  0  0  0  0  0  0  0
    4.1367    0.8486   -0.1236 C   0  0  0  0  0  0  0  0  0  0  0  0
    3.4246    0.5074   -1.2769 C   0  0  0  0  0  0  0  0  0  0  0  0
    2.2275   -0.2050   -1.1999 C   0  0  0  0  0  0  0  0  0  0  0  0
    0.2166   -1.4669    0.1811 S   0  0  0  0  0  0  0  0  0  0  0  0
   -0.1120   -1.9312   -1.1587 O   0  0  0  0  0  0  0  0  0  0  0  0
    0.3136   -2.3883    1.3005 O   0  0  0  0  0  0  0  0  0  0  0  0
   -0.8635   -0.3115    0.6744 N   0  0  0  0  0  0  0  0  0  0  0  0
    5.4421    1.5936   -0.2066 C   0  0  0  0  0  0  0  0  0  0  0  0
   -1.5437    0.5295   -0.3106 C   0  0  1  0  0  0  0  0  0  0  0  0
   -2.7630   -0.1656   -0.9467 C   0  0  1  0  0  0  0  0  0  0  0  0
   -3.8632   -0.3729    0.1090 C   0  0  0  0  0  0  0  0  0  0  0  0
   -4.2601    0.9402    0.7886 C   0  0  0  0  0  0  0  0  0  0  0  0
   -3.0421    1.6409    1.3949 C   0  0  0  0  0  0  0  0  0  0  0  0
   -1.9470    1.8514    0.3467 C   0  0  0  0  0  0  0  0  0  0  0  0
   -3.1811    0.6015   -2.1143 N   0  0  0  0  0  0  0  0  0  0  0  0
    2.0360   -0.5652    2.1865 H   0  0  0  0  0  0  0  0  0  0  0  0
    4.1760    0.7145    2.0321 H   0  0  0  0  0  0  0  0  0  0  0  0
    3.8140    0.7993   -2.2543 H   0  0  0  0  0  0  0  0  0  0  0  0
    1.6719   -0.4934   -2.0935 H   0  0  0  0  0  0  0  0  0  0  0  0
   -1.4038   -0.6646    1.4611 H   0  0  0  0  0  0  0  0  0  0  0  0
    5.5938    2.0249   -1.2042 H   0  0  0  0  0  0  0  0  0  0  0  0
    5.4814    2.4061    0.5324 H   0  0  0  0  0  0  0  0  0  0  0  0
    6.2859    0.9183    0.0021 H   0  0  0  0  0  0  0  0  0  0  0  0
   -0.8237    0.7253   -1.1195 H   0  0  0  0  0  0  0  0  0  0  0  0
   -2.4105   -1.1419   -1.3085 H   0  0  0  0  0  0  0  0  0  0  0  0
   -4.7363   -0.8472   -0.3657 H   0  0  0  0  0  0  0  0  0  0  0  0
   -3.5085   -1.0860    0.8737 H   0  0  0  0  0  0  0  0  0  0  0  0
   -4.7292    1.6122    0.0488 H   0  0  0  0  0  0  0  0  0  0  0  0
   -5.0247    0.7575    1.5579 H   0  0  0  0  0  0  0  0  0  0  0  0
   -3.3317    2.6039    1.8406 H   0  0  0  0  0  0  0  0  0  0  0  0
   -2.6431    1.0301    2.2243 H   0  0  0  0  0  0  0  0  0  0  0  0
   -1.0579    2.3206    0.7919 H   0  0  0  0  0  0  0  0  0  0  0  0
   -2.3136    2.5296   -0.4410 H   0  0  0  0  0  0  0  0  0  0  0  0
   -3.7832    0.0357   -2.7079 H   0  0  0  0  0  0  0  0  0  0  0  0
   -3.7287    1.4165   -1.8443 H   0  0  0  0  0  0  0  0  0  0  0  0
  1  2  2  0  0  0  0
  1  6  1  0  0  0  0
  1  7  1  0  0  0  0
  2  3  1  0  0  0  0
  2 19  1  0  0  0  0
  3  4  2  0  0  0  0
  3 20  1  0  0  0  0
  4  5  1  0  0  0  0
  4 11  1  0  0  0  0
  5  6  2  0  0  0  0
  5 21  1  0  0  0  0
  6 22  1  0  0  0  0
  7  8  2  0  0  0  0
  7  9  2  0  0  0  0
  7 10  1  0  0  0  0
 10 12  1  0  0  0  0
 10 23  1  0  0  0  0
 11 24  1  0  0  0  0
 11 25  1  0  0  0  0
 11 26  1  0  0  0  0
 12 13  1  0  0  0  0
 12 17  1  0  0  0  0
 12 27  1  6  0  0  0
 13 14  1  0  0  0  0
 13 18  1  0  0  0  0
 13 28  1  6  0  0  0
 14 15  1  0  0  0  0
 14 29  1  0  0  0  0
 14 30  1  0  0  0  0
 15 16  1  0  0  0  0
 15 31  1  0  0  0  0
 15 32  1  0  0  0  0
 16 17  1  0  0  0  0
 16 33  1  0  0  0  0
 16 34  1  0  0  0  0
 17 35  1  0  0  0  0
 17 36  1  0  0  0  0
 18 37  1  0  0  0  0
 18 38  1  0  0  0  0
M  END
$$$$
