Title Card Required
 OpenBabel03192317563D

120130  0  0  1  0  0  0  0  0999 V2000
   -0.8657    0.6131    1.9940 C   0  0  0  0  0  0  0  0  0  0  0  0
   -1.4039    1.6573    1.2363 C   0  0  0  0  0  0  0  0  0  0  0  0
   -0.5546    2.6424    0.7120 C   0  0  0  0  0  0  0  0  0  0  0  0
    0.8496    2.5228    0.8738 C   0  0  0  0  0  0  0  0  0  0  0  0
    1.3750    1.4035    1.5471 C   0  0  0  0  0  0  0  0  0  0  0  0
    0.5021    0.4764    2.1299 C   0  0  0  0  0  0  0  0  0  0  0  0
   -1.1265    3.7489   -0.1176 C   0  0  0  0  0  0  0  0  0  0  0  0
   -0.2469    4.9349   -0.3526 C   0  0  0  0  0  0  0  0  0  0  0  0
    1.1313    4.8502   -0.1402 C   0  0  0  0  0  0  0  0  0  0  0  0
    1.7625    3.5690    0.3071 C   0  0  0  0  0  0  0  0  0  0  0  0
   -0.8098    6.1176   -0.8390 C   0  0  0  0  0  0  0  0  0  0  0  0
    0.0032    7.2196   -1.0820 C   0  0  0  0  0  0  0  0  0  0  0  0
    1.3830    7.1359   -0.8675 C   0  0  0  0  0  0  0  0  0  0  0  0
    1.9493    5.9504   -0.4114 C   0  0  0  0  0  0  0  0  0  0  0  0
    2.7165    1.2505    1.6651 O   0  0  0  0  0  0  0  0  0  0  0  0
   -2.7432    1.7395    1.0726 O   0  0  0  0  0  0  0  0  0  0  0  0
    2.9606    3.4258    0.1928 O   0  0  0  0  0  0  0  0  0  0  0  0
   -2.2382    3.7215   -0.5995 O   0  0  0  0  0  0  0  0  0  0  0  0
    3.2581   -0.0528    1.4948 C   0  0  1  0  0  0  0  0  0  0  0  0
    2.9131   -0.5866    0.1156 C   0  0  0  0  0  0  0  0  0  0  0  0
    4.7454    0.1082    1.8430 C   0  0  1  0  0  0  0  0  0  0  0  0
    5.4538   -1.1736    1.9308 N   0  0  2  0  0  0  0  0  0  0  0  0
    5.5303    1.1136    0.9763 C   0  0  0  0  0  0  0  0  0  0  0  0
    2.7980    0.2772   -0.9489 C   0  0  0  0  0  0  0  0  0  0  0  0
    2.4192   -0.2314   -2.2194 C   0  0  0  0  0  0  0  0  0  0  0  0
    2.1346   -1.4840   -2.4588 N   0  0  0  0  0  0  0  0  0  0  0  0
    2.2416   -2.3683   -1.4257 C   0  0  0  0  0  0  0  0  0  0  0  0
    2.6471   -1.9729   -0.1125 C   0  0  0  0  0  0  0  0  0  0  0  0
    1.9391   -3.7234   -1.6859 C   0  0  0  0  0  0  0  0  0  0  0  0
    2.0451   -4.6759   -0.6921 C   0  0  0  0  0  0  0  0  0  0  0  0
    2.4910   -4.2966    0.6024 C   0  0  0  0  0  0  0  0  0  0  0  0
    2.7854   -2.9805    0.8765 C   0  0  0  0  0  0  0  0  0  0  0  0
    6.5991   -0.9716    2.8255 C   0  0  0  0  0  0  0  0  0  0  0  0
    7.4174    0.2753    2.3877 C   0  0  0  0  0  0  0  0  0  0  0  0
    6.9919    0.6341    0.9542 C   0  0  1  0  0  0  0  0  0  0  0  0
    7.0915   -0.6473    0.1072 C   0  0  1  0  0  0  0  0  0  0  0  0
    5.9740   -1.5934    0.6221 C   0  0  0  0  0  0  0  0  0  0  0  0
    1.7198   -5.9444   -1.0201 O   0  0  0  0  0  0  0  0  0  0  0  0
    1.7796   -6.9402   -0.0331 C   0  0  0  0  0  0  0  0  0  0  0  0
   -3.4125    0.6606    0.4288 C   0  0  2  0  0  0  0  0  0  0  0  0
   -2.9867    0.5485   -1.0462 C   0  0  2  0  0  0  0  0  0  0  0  0
   -4.8920    0.9587    0.5202 C   0  0  0  0  0  0  0  0  0  0  0  0
   -3.6835   -0.6133   -1.7990 C   0  0  0  0  0  0  0  0  0  0  0  0
   -5.8775   -0.0438    0.7848 C   0  0  0  0  0  0  0  0  0  0  0  0
   -7.2440    0.3731    0.7778 C   0  0  0  0  0  0  0  0  0  0  0  0
   -7.6317    1.6557    0.5507 N   0  0  0  0  0  0  0  0  0  0  0  0
   -6.7006    2.5457    0.3290 C   0  0  0  0  0  0  0  0  0  0  0  0
   -5.3138    2.2480    0.2994 C   0  0  0  0  0  0  0  0  0  0  0  0
   -5.5818   -1.4026    1.0512 C   0  0  0  0  0  0  0  0  0  0  0  0
   -6.5855   -2.3219    1.2808 C   0  0  0  0  0  0  0  0  0  0  0  0
   -7.9455   -1.9109    1.2635 C   0  0  0  0  0  0  0  0  0  0  0  0
   -8.2530   -0.5945    1.0214 C   0  0  0  0  0  0  0  0  0  0  0  0
   -1.5373    0.4297   -1.1931 N   0  0  2  0  0  0  0  0  0  0  0  0
   -1.1921    0.7897   -2.5682 C   0  0  0  0  0  0  0  0  0  0  0  0
   -2.0493   -0.0279   -3.5756 C   0  0  0  0  0  0  0  0  0  0  0  0
   -2.6644   -1.2023   -2.7956 C   0  0  1  0  0  0  0  0  0  0  0  0
   -1.5005   -1.8982   -2.0538 C   0  0  1  0  0  0  0  0  0  0  0  0
   -1.0835   -0.9346   -0.9185 C   0  0  0  0  0  0  0  0  0  0  0  0
   -1.7239   -3.3445   -1.5959 C   0  0  0  0  0  0  0  0  0  0  0  0
   -2.9048   -3.6300   -0.6703 C   0  0  0  0  0  0  0  0  0  0  0  0
   -6.1976   -3.5971    1.5139 O   0  0  0  0  0  0  0  0  0  0  0  0
   -7.1753   -4.5607    1.8042 C   0  0  0  0  0  0  0  0  0  0  0  0
    7.0018   -0.4119   -1.3996 C   0  0  0  0  0  0  0  0  0  0  0  0
    7.1599   -1.6931   -2.2131 C   0  0  0  0  0  0  0  0  0  0  0  0
   -1.5412   -0.1061    2.4593 H   0  0  0  0  0  0  0  0  0  0  0  0
    0.9044   -0.3583    2.7031 H   0  0  0  0  0  0  0  0  0  0  0  0
   -1.8851    6.1451   -1.0184 H   0  0  0  0  0  0  0  0  0  0  0  0
   -0.4345    8.1494   -1.4485 H   0  0  0  0  0  0  0  0  0  0  0  0
    2.0177    8.0004   -1.0681 H   0  0  0  0  0  0  0  0  0  0  0  0
    3.0244    5.8476   -0.2604 H   0  0  0  0  0  0  0  0  0  0  0  0
    2.8507   -0.7372    2.2532 H   0  0  0  0  0  0  0  0  0  0  0  0
    4.7080    0.5020    2.8715 H   0  0  0  0  0  0  0  0  0  0  0  0
    5.1277    1.1563   -0.0460 H   0  0  0  0  0  0  0  0  0  0  0  0
    5.4318    2.1274    1.3872 H   0  0  0  0  0  0  0  0  0  0  0  0
    2.9753    1.3457   -0.8119 H   0  0  0  0  0  0  0  0  0  0  0  0
    2.3424    0.4611   -3.0653 H   0  0  0  0  0  0  0  0  0  0  0  0
    1.6204   -4.0096   -2.6877 H   0  0  0  0  0  0  0  0  0  0  0  0
    2.6170   -5.0423    1.3858 H   0  0  0  0  0  0  0  0  0  0  0  0
    3.1863   -2.7183    1.8568 H   0  0  0  0  0  0  0  0  0  0  0  0
    7.2157   -1.8822    2.7904 H   0  0  0  0  0  0  0  0  0  0  0  0
    6.2344   -0.8674    3.8582 H   0  0  0  0  0  0  0  0  0  0  0  0
    8.4971    0.0683    2.4276 H   0  0  0  0  0  0  0  0  0  0  0  0
    7.2250    1.1273    3.0583 H   0  0  0  0  0  0  0  0  0  0  0  0
    7.6473    1.4144    0.5393 H   0  0  0  0  0  0  0  0  0  0  0  0
    8.0776   -1.1040    0.3106 H   0  0  0  0  0  0  0  0  0  0  0  0
    6.3286   -2.6315    0.7119 H   0  0  0  0  0  0  0  0  0  0  0  0
    5.1466   -1.6070   -0.0992 H   0  0  0  0  0  0  0  0  0  0  0  0
    2.8047   -7.0739    0.3499 H   0  0  0  0  0  0  0  0  0  0  0  0
    1.1070   -6.7157    0.8113 H   0  0  0  0  0  0  0  0  0  0  0  0
    1.4548   -7.8715   -0.5098 H   0  0  0  0  0  0  0  0  0  0  0  0
   -3.1818   -0.2810    0.9557 H   0  0  0  0  0  0  0  0  0  0  0  0
   -3.2587    1.5169   -1.4953 H   0  0  0  0  0  0  0  0  0  0  0  0
   -4.0214   -1.3853   -1.0968 H   0  0  0  0  0  0  0  0  0  0  0  0
   -4.5797   -0.2520   -2.3254 H   0  0  0  0  0  0  0  0  0  0  0  0
   -7.0311    3.5751    0.1535 H   0  0  0  0  0  0  0  0  0  0  0  0
   -4.5749    3.0292    0.1075 H   0  0  0  0  0  0  0  0  0  0  0  0
   -4.5586   -1.7726    1.0827 H   0  0  0  0  0  0  0  0  0  0  0  0
   -8.7459   -2.6272    1.4425 H   0  0  0  0  0  0  0  0  0  0  0  0
   -9.2861   -0.2458    1.0068 H   0  0  0  0  0  0  0  0  0  0  0  0
   -0.1209    0.5831   -2.7071 H   0  0  0  0  0  0  0  0  0  0  0  0
   -1.3434    1.8723   -2.6967 H   0  0  0  0  0  0  0  0  0  0  0  0
   -1.4292   -0.3967   -4.4058 H   0  0  0  0  0  0  0  0  0  0  0  0
   -2.8472    0.5939   -4.0111 H   0  0  0  0  0  0  0  0  0  0  0  0
   -3.1619   -1.9087   -3.4778 H   0  0  0  0  0  0  0  0  0  0  0  0
   -0.6565   -1.9430   -2.7647 H   0  0  0  0  0  0  0  0  0  0  0  0
   -1.5093   -1.2608    0.0443 H   0  0  0  0  0  0  0  0  0  0  0  0
    0.0104   -0.9229   -0.7798 H   0  0  0  0  0  0  0  0  0  0  0  0
   -1.8182   -3.9768   -2.4944 H   0  0  0  0  0  0  0  0  0  0  0  0
   -0.7955   -3.6757   -1.0996 H   0  0  0  0  0  0  0  0  0  0  0  0
   -3.8744   -3.4734   -1.1646 H   0  0  0  0  0  0  0  0  0  0  0  0
   -2.8791   -4.6748   -0.3298 H   0  0  0  0  0  0  0  0  0  0  0  0
   -2.8842   -2.9999    0.2332 H   0  0  0  0  0  0  0  0  0  0  0  0
   -7.7506   -4.2967    2.7070 H   0  0  0  0  0  0  0  0  0  0  0  0
   -7.8740   -4.7002    0.9626 H   0  0  0  0  0  0  0  0  0  0  0  0
   -6.6436   -5.5018    1.9830 H   0  0  0  0  0  0  0  0  0  0  0  0
    6.0307    0.0542   -1.6404 H   0  0  0  0  0  0  0  0  0  0  0  0
    7.7772    0.3138   -1.6956 H   0  0  0  0  0  0  0  0  0  0  0  0
    6.3544   -2.4106   -1.9954 H   0  0  0  0  0  0  0  0  0  0  0  0
    7.1319   -1.4881   -3.2921 H   0  0  0  0  0  0  0  0  0  0  0  0
    8.1180   -2.1873   -1.9890 H   0  0  0  0  0  0  0  0  0  0  0  0
  1  2  2  0  0  0  0
  1  6  1  0  0  0  0
  1 65  1  0  0  0  0
  2  3  1  0  0  0  0
  2 16  1  0  0  0  0
  3  4  2  0  0  0  0
  3  7  1  0  0  0  0
  4  5  1  0  0  0  0
  4 10  1  0  0  0  0
  5  6  2  0  0  0  0
  5 15  1  0  0  0  0
  6 66  1  0  0  0  0
  7  8  1  0  0  0  0
  7 18  2  0  0  0  0
  8  9  2  0  0  0  0
  8 11  1  0  0  0  0
  9 10  1  0  0  0  0
  9 14  1  0  0  0  0
 10 17  2  0  0  0  0
 11 12  2  0  0  0  0
 11 67  1  0  0  0  0
 12 13  1  0  0  0  0
 12 68  1  0  0  0  0
 13 14  2  0  0  0  0
 13 69  1  0  0  0  0
 14 70  1  0  0  0  0
 15 19  1  0  0  0  0
 16 40  1  0  0  0  0
 19 20  1  0  0  0  0
 19 21  1  0  0  0  0
 19 71  1  1  0  0  0
 20 24  2  0  0  0  0
 20 28  1  0  0  0  0
 21 22  1  0  0  0  0
 21 23  1  0  0  0  0
 21 72  1  1  0  0  0
 22 33  1  1  0  0  0
 22 37  1  0  0  0  0
 23 35  1  0  0  0  0
 23 73  1  0  0  0  0
 23 74  1  0  0  0  0
 24 25  1  0  0  0  0
 24 75  1  0  0  0  0
 25 26  2  0  0  0  0
 25 76  1  0  0  0  0
 26 27  1  0  0  0  0
 27 28  2  0  0  0  0
 27 29  1  0  0  0  0
 28 32  1  0  0  0  0
 29 30  2  0  0  0  0
 29 77  1  0  0  0  0
 30 31  1  0  0  0  0
 30 38  1  0  0  0  0
 31 32  2  0  0  0  0
 31 78  1  0  0  0  0
 32 79  1  0  0  0  0
 33 34  1  0  0  0  0
 33 80  1  0  0  0  0
 33 81  1  0  0  0  0
 34 35  1  0  0  0  0
 34 82  1  0  0  0  0
 34 83  1  0  0  0  0
 35 36  1  0  0  0  0
 35 84  1  6  0  0  0
 36 37  1  0  0  0  0
 36 63  1  0  0  0  0
 36 85  1  1  0  0  0
 37 86  1  0  0  0  0
 37 87  1  0  0  0  0
 38 39  1  0  0  0  0
 39 88  1  0  0  0  0
 39 89  1  0  0  0  0
 39 90  1  0  0  0  0
 40 41  1  0  0  0  0
 40 42  1  0  0  0  0
 40 91  1  1  0  0  0
 41 43  1  0  0  0  0
 41 53  1  0  0  0  0
 41 92  1  6  0  0  0
 42 44  2  0  0  0  0
 42 48  1  0  0  0  0
 43 56  1  0  0  0  0
 43 93  1  0  0  0  0
 43 94  1  0  0  0  0
 44 45  1  0  0  0  0
 44 49  1  0  0  0  0
 45 46  2  0  0  0  0
 45 52  1  0  0  0  0
 46 47  1  0  0  0  0
 47 48  2  0  0  0  0
 47 95  1  0  0  0  0
 48 96  1  0  0  0  0
 49 50  2  0  0  0  0
 49 97  1  0  0  0  0
 50 51  1  0  0  0  0
 50 61  1  0  0  0  0
 51 52  2  0  0  0  0
 51 98  1  0  0  0  0
 52 99  1  0  0  0  0
 53 54  1  6  0  0  0
 53 58  1  0  0  0  0
 54 55  1  0  0  0  0
 54100  1  0  0  0  0
 54101  1  0  0  0  0
 55 56  1  0  0  0  0
 55102  1  0  0  0  0
 55103  1  0  0  0  0
 56 57  1  0  0  0  0
 56104  1  6  0  0  0
 57 58  1  0  0  0  0
 57 59  1  0  0  0  0
 57105  1  6  0  0  0
 58106  1  0  0  0  0
 58107  1  0  0  0  0
 59 60  1  0  0  0  0
 59108  1  0  0  0  0
 59109  1  0  0  0  0
 60110  1  0  0  0  0
 60111  1  0  0  0  0
 60112  1  0  0  0  0
 61 62  1  0  0  0  0
 62113  1  0  0  0  0
 62114  1  0  0  0  0
 62115  1  0  0  0  0
 63 64  1  0  0  0  0
 63116  1  0  0  0  0
 63117  1  0  0  0  0
 64118  1  0  0  0  0
 64119  1  0  0  0  0
 64120  1  0  0  0  0
M  END
$$$$
