Title Card Required
 OpenBabel03192317503D

 17 17  0  0  1  0  0  0  0  0999 V2000
   -0.5927   -0.8629   -0.7053 N   0  0  0  0  0  0  0  0  0  0  0  0
    0.0482   -0.0633    0.2684 C   0  0  2  0  0  0  0  0  0  0  0  0
   -0.8726    1.1413    0.4690 C   0  0  0  0  0  0  0  0  0  0  0  0
   -2.1813    0.7525   -0.2478 C   0  0  0  0  0  0  0  0  0  0  0  0
   -2.0314   -0.7525   -0.4913 C   0  0  0  0  0  0  0  0  0  0  0  0
    1.4735    0.2589   -0.1751 C   0  0  0  0  0  0  0  0  0  0  0  0
    1.9060    1.3543   -0.3881 O   0  0  0  0  0  0  0  0  0  0  0  0
    2.1848   -0.8623   -0.3263 O   0  0  0  0  0  0  0  0  0  0  0  0
    0.1824   -0.7416    1.4856 F   0  0  0  0  0  0  0  0  0  0  0  0
   -0.2025   -1.7992   -0.7746 H   0  0  0  0  0  0  0  0  0  0  0  0
   -1.0058    1.2784    1.5494 H   0  0  0  0  0  0  0  0  0  0  0  0
   -0.4116    2.0478    0.0605 H   0  0  0  0  0  0  0  0  0  0  0  0
   -3.0767    0.9983    0.3361 H   0  0  0  0  0  0  0  0  0  0  0  0
   -2.2505    1.2718   -1.2130 H   0  0  0  0  0  0  0  0  0  0  0  0
   -2.5871   -1.1031   -1.3713 H   0  0  0  0  0  0  0  0  0  0  0  0
   -2.3710   -1.3289    0.3886 H   0  0  0  0  0  0  0  0  0  0  0  0
    3.0686   -0.6079   -0.6335 H   0  0  0  0  0  0  0  0  0  0  0  0
  1  2  1  0  0  0  0
  1  5  1  0  0  0  0
  1 10  1  0  0  0  0
  2  3  1  0  0  0  0
  2  6  1  0  0  0  0
  2  9  1  1  0  0  0
  3  4  1  0  0  0  0
  3 11  1  0  0  0  0
  3 12  1  0  0  0  0
  4  5  1  0  0  0  0
  4 13  1  0  0  0  0
  4 14  1  0  0  0  0
  5 15  1  0  0  0  0
  5 16  1  0  0  0  0
  6  7  2  0  0  0  0
  6  8  1  0  0  0  0
  8 17  1  0  0  0  0
M  END
$$$$
