Title Card Required
 OpenBabel03192317463D

 58 64  0  0  0  0  0  0  0  0999 V2000
    0.9665   -0.4211   -0.8851 O   0  0  0  0  0  0  0  0  0  0  0  0
    0.0044   -1.5010   -0.1405 P   0  0  0  0  0  0  0  0  0  0  0  0
   -0.9172   -0.4926    0.7475 O   0  0  0  0  0  0  0  0  0  0  0  0
   -1.5161    0.5620    0.0832 C   0  0  0  0  0  0  0  0  0  0  0  0
   -0.7420    1.6606   -0.2373 C   0  0  0  0  0  0  0  0  0  0  0  0
    0.6842    1.6802    0.1910 C   0  0  0  0  0  0  0  0  0  0  0  0
    1.5012    0.6198   -0.1563 C   0  0  0  0  0  0  0  0  0  0  0  0
   -2.8917    0.4438   -0.2672 C   0  0  0  0  0  0  0  0  0  0  0  0
   -3.4569    1.4874   -0.9658 C   0  0  0  0  0  0  0  0  0  0  0  0
   -2.7049    2.6232   -1.3633 C   0  0  0  0  0  0  0  0  0  0  0  0
   -3.2998    3.6654   -2.1264 C   0  0  0  0  0  0  0  0  0  0  0  0
   -2.5565    4.7375   -2.5520 C   0  0  0  0  0  0  0  0  0  0  0  0
   -1.1775    4.8097   -2.2384 C   0  0  0  0  0  0  0  0  0  0  0  0
   -0.5772    3.8255   -1.4904 C   0  0  0  0  0  0  0  0  0  0  0  0
   -1.3263    2.7136   -1.0154 C   0  0  0  0  0  0  0  0  0  0  0  0
    2.8733    0.5326    0.2270 C   0  0  0  0  0  0  0  0  0  0  0  0
    3.3936    1.5763    0.9621 C   0  0  0  0  0  0  0  0  0  0  0  0
    2.5999    2.6775    1.3719 C   0  0  0  0  0  0  0  0  0  0  0  0
    3.1502    3.7201    2.1678 C   0  0  0  0  0  0  0  0  0  0  0  0
    2.3639    4.7524    2.6135 C   0  0  0  0  0  0  0  0  0  0  0  0
    0.9853    4.7807    2.2893 C   0  0  0  0  0  0  0  0  0  0  0  0
    0.4280    3.7960    1.5097 C   0  0  0  0  0  0  0  0  0  0  0  0
    1.2224    2.7266    1.0101 C   0  0  0  0  0  0  0  0  0  0  0  0
    0.8949   -2.1751    0.9895 O   0  0  0  0  0  0  0  0  0  0  0  0
    3.6991   -0.6561   -0.1112 C   0  0  0  0  0  0  0  0  0  0  0  0
    3.6569   -1.2535   -1.3797 C   0  0  0  0  0  0  0  0  0  0  0  0
    4.4577   -2.3502   -1.6790 C   0  0  0  0  0  0  0  0  0  0  0  0
    5.3083   -2.8668   -0.7027 C   0  0  0  0  0  0  0  0  0  0  0  0
    5.3662   -2.2959    0.5659 C   0  0  0  0  0  0  0  0  0  0  0  0
    4.5625   -1.1964    0.8525 C   0  0  0  0  0  0  0  0  0  0  0  0
    6.3036   -4.2403   -1.0673 Cl  0  0  0  0  0  0  0  0  0  0  0  0
   -3.6798   -0.7628    0.0896 C   0  0  0  0  0  0  0  0  0  0  0  0
   -3.6234   -1.3215    1.3737 C   0  0  0  0  0  0  0  0  0  0  0  0
   -4.4010   -2.4251    1.7071 C   0  0  0  0  0  0  0  0  0  0  0  0
   -5.2403   -2.9856    0.7459 C   0  0  0  0  0  0  0  0  0  0  0  0
   -5.3069   -2.4554   -0.5398 C   0  0  0  0  0  0  0  0  0  0  0  0
   -4.5264   -1.3486   -0.8595 C   0  0  0  0  0  0  0  0  0  0  0  0
   -6.2111   -4.3661    1.1540 Cl  0  0  0  0  0  0  0  0  0  0  0  0
   -0.6622   -2.4125   -1.0586 O   0  0  0  0  0  0  0  0  0  0  0  0
   -4.5160    1.4419   -1.2290 H   0  0  0  0  0  0  0  0  0  0  0  0
   -4.3598    3.5885   -2.3760 H   0  0  0  0  0  0  0  0  0  0  0  0
   -3.0215    5.5288   -3.1415 H   0  0  0  0  0  0  0  0  0  0  0  0
   -0.5842    5.6516   -2.5978 H   0  0  0  0  0  0  0  0  0  0  0  0
    0.4873    3.8873   -1.2635 H   0  0  0  0  0  0  0  0  0  0  0  0
    4.4490    1.5589    1.2432 H   0  0  0  0  0  0  0  0  0  0  0  0
    4.2103    3.6760    2.4250 H   0  0  0  0  0  0  0  0  0  0  0  0
    2.7937    5.5449    3.2274 H   0  0  0  0  0  0  0  0  0  0  0  0
    0.3580    5.5899    2.6654 H   0  0  0  0  0  0  0  0  0  0  0  0
   -0.6354    3.8251    1.2727 H   0  0  0  0  0  0  0  0  0  0  0  0
    1.3625   -1.5528    1.5656 H   0  0  0  0  0  0  0  0  0  0  0  0
    2.9918   -0.8537   -2.1444 H   0  0  0  0  0  0  0  0  0  0  0  0
    4.4265   -2.8105   -2.6662 H   0  0  0  0  0  0  0  0  0  0  0  0
    6.0308   -2.7187    1.3190 H   0  0  0  0  0  0  0  0  0  0  0  0
    4.5974   -0.7595    1.8527 H   0  0  0  0  0  0  0  0  0  0  0  0
   -2.9656   -0.8833    2.1246 H   0  0  0  0  0  0  0  0  0  0  0  0
   -4.3631   -2.8555    2.7076 H   0  0  0  0  0  0  0  0  0  0  0  0
   -5.9578   -2.9173   -1.2817 H   0  0  0  0  0  0  0  0  0  0  0  0
   -4.5574   -0.9464   -1.8736 H   0  0  0  0  0  0  0  0  0  0  0  0
  1  2  1  0  0  0  0
  1  7  1  0  0  0  0
  2  3  1  0  0  0  0
  2 24  1  0  0  0  0
  2 39  2  0  0  0  0
  3  4  1  0  0  0  0
  4  5  2  0  0  0  0
  4  8  1  0  0  0  0
  5  6  1  0  0  0  0
  5 15  1  0  0  0  0
  6  7  2  0  0  0  0
  6 23  1  0  0  0  0
  7 16  1  0  0  0  0
  8  9  2  0  0  0  0
  8 32  1  0  0  0  0
  9 10  1  0  0  0  0
  9 40  1  0  0  0  0
 10 11  2  0  0  0  0
 10 15  1  0  0  0  0
 11 12  1  0  0  0  0
 11 41  1  0  0  0  0
 12 13  2  0  0  0  0
 12 42  1  0  0  0  0
 13 14  1  0  0  0  0
 13 43  1  0  0  0  0
 14 15  2  0  0  0  0
 14 44  1  0  0  0  0
 16 17  2  0  0  0  0
 16 25  1  0  0  0  0
 17 18  1  0  0  0  0
 17 45  1  0  0  0  0
 18 19  2  0  0  0  0
 18 23  1  0  0  0  0
 19 20  1  0  0  0  0
 19 46  1  0  0  0  0
 20 21  2  0  0  0  0
 20 47  1  0  0  0  0
 21 22  1  0  0  0  0
 21 48  1  0  0  0  0
 22 23  2  0  0  0  0
 22 49  1  0  0  0  0
 24 50  1  0  0  0  0
 25 26  2  0  0  0  0
 25 30  1  0  0  0  0
 26 27  1  0  0  0  0
 26 51  1  0  0  0  0
 27 28  2  0  0  0  0
 27 52  1  0  0  0  0
 28 29  1  0  0  0  0
 28 31  1  0  0  0  0
 29 30  2  0  0  0  0
 29 53  1  0  0  0  0
 30 54  1  0  0  0  0
 32 33  2  0  0  0  0
 32 37  1  0  0  0  0
 33 34  1  0  0  0  0
 33 55  1  0  0  0  0
 34 35  2  0  0  0  0
 34 56  1  0  0  0  0
 35 36  1  0  0  0  0
 35 38  1  0  0  0  0
 36 37  2  0  0  0  0
 36 57  1  0  0  0  0
 37 58  1  0  0  0  0
M  END
$$$$
