Title Card Required
 OpenBabel03192317413D

 77 85  0  0  1  0  0  0  0  0999 V2000
    0.7199    4.4629   -0.1026 C   0  0  0  0  0  0  0  0  0  0  0  0
   -0.7202    4.4628    0.1026 C   0  0  0  0  0  0  0  0  0  0  0  0
   -1.0826    3.1057    0.1466 C   0  0  0  0  0  0  0  0  0  0  0  0
   -0.0001    2.2971   -0.0000 O   0  0  0  0  0  0  0  0  0  0  0  0
    1.0824    3.1057   -0.1467 C   0  0  0  0  0  0  0  0  0  0  0  0
   -1.6993    5.4459    0.2624 C   0  0  0  0  0  0  0  0  0  0  0  0
   -3.0158    5.0444    0.4763 C   0  0  0  0  0  0  0  0  0  0  0  0
   -3.3555    3.6884    0.5301 C   0  0  0  0  0  0  0  0  0  0  0  0
   -2.3976    2.6852    0.3554 C   0  0  0  0  0  0  0  0  0  0  0  0
    2.3974    2.6853   -0.3555 C   0  0  0  0  0  0  0  0  0  0  0  0
    3.3553    3.6885   -0.5303 C   0  0  0  0  0  0  0  0  0  0  0  0
    3.0156    5.0445   -0.4764 C   0  0  0  0  0  0  0  0  0  0  0  0
    1.6991    5.4460   -0.2624 C   0  0  0  0  0  0  0  0  0  0  0  0
   -2.7789    1.2654    0.4564 C   0  0  0  0  0  0  0  0  0  0  0  0
    2.7788    1.2655   -0.4565 C   0  0  0  0  0  0  0  0  0  0  0  0
   -3.8002    0.8244    1.0667 N   0  0  0  0  0  0  0  0  0  0  0  0
   -3.7593   -0.6292    0.9731 C   0  0  2  0  0  0  0  0  0  0  0  0
   -2.4308   -0.9258    0.1806 C   0  0  1  0  0  0  0  0  0  0  0  0
   -1.9526    0.3810   -0.1420 O   0  0  0  0  0  0  0  0  0  0  0  0
    1.9525    0.3810    0.1419 O   0  0  0  0  0  0  0  0  0  0  0  0
    2.4308   -0.9257   -0.1805 C   0  0  2  0  0  0  0  0  0  0  0  0
    3.7593   -0.6291   -0.9731 C   0  0  1  0  0  0  0  0  0  0  0  0
    3.8001    0.8245   -1.0667 N   0  0  0  0  0  0  0  0  0  0  0  0
    4.9831   -1.2301   -0.3199 C   0  0  0  0  0  0  0  0  0  0  0  0
   -4.9830   -1.2303    0.3199 C   0  0  0  0  0  0  0  0  0  0  0  0
    1.4059   -1.6857   -0.9808 C   0  0  0  0  0  0  0  0  0  0  0  0
   -1.4058   -1.6856    0.9808 C   0  0  0  0  0  0  0  0  0  0  0  0
    5.3809   -2.5263   -0.6607 C   0  0  0  0  0  0  0  0  0  0  0  0
    6.4671   -3.1249   -0.0247 C   0  0  0  0  0  0  0  0  0  0  0  0
    7.1711   -2.4279    0.9566 C   0  0  0  0  0  0  0  0  0  0  0  0
    6.7837   -1.1317    1.2956 C   0  0  0  0  0  0  0  0  0  0  0  0
    5.6954   -0.5351    0.6606 C   0  0  0  0  0  0  0  0  0  0  0  0
    0.4345   -1.0131   -1.7271 C   0  0  0  0  0  0  0  0  0  0  0  0
   -0.4673   -1.7353   -2.5069 C   0  0  0  0  0  0  0  0  0  0  0  0
   -0.4112   -3.1292   -2.5414 C   0  0  0  0  0  0  0  0  0  0  0  0
    0.5501   -3.8013   -1.7869 C   0  0  0  0  0  0  0  0  0  0  0  0
    1.4533   -3.0817   -1.0064 C   0  0  0  0  0  0  0  0  0  0  0  0
   -5.3807   -2.5266    0.6606 C   0  0  0  0  0  0  0  0  0  0  0  0
   -6.4668   -3.1253    0.0246 C   0  0  0  0  0  0  0  0  0  0  0  0
   -7.1709   -2.4282   -0.9566 C   0  0  0  0  0  0  0  0  0  0  0  0
   -6.7838   -1.1319   -1.2955 C   0  0  0  0  0  0  0  0  0  0  0  0
   -5.6955   -0.5352   -0.6605 C   0  0  0  0  0  0  0  0  0  0  0  0
   -1.4530   -3.0816    1.0065 C   0  0  0  0  0  0  0  0  0  0  0  0
   -0.5497   -3.8011    1.7871 C   0  0  0  0  0  0  0  0  0  0  0  0
    0.4114   -3.1288    2.5417 C   0  0  0  0  0  0  0  0  0  0  0  0
    0.4673   -1.7349    2.5070 C   0  0  0  0  0  0  0  0  0  0  0  0
   -0.4345   -1.0129    1.7272 C   0  0  0  0  0  0  0  0  0  0  0  0
   -1.4369    6.5043    0.2285 H   0  0  0  0  0  0  0  0  0  0  0  0
   -3.7951    5.7950    0.6101 H   0  0  0  0  0  0  0  0  0  0  0  0
   -4.3838    3.3752    0.7158 H   0  0  0  0  0  0  0  0  0  0  0  0
    4.3836    3.3753   -0.7159 H   0  0  0  0  0  0  0  0  0  0  0  0
    3.7948    5.7951   -0.6102 H   0  0  0  0  0  0  0  0  0  0  0  0
    1.4366    6.5043   -0.2285 H   0  0  0  0  0  0  0  0  0  0  0  0
   -3.6766   -1.0431    1.9906 H   0  0  0  0  0  0  0  0  0  0  0  0
   -2.6402   -1.4554   -0.7605 H   0  0  0  0  0  0  0  0  0  0  0  0
    2.6403   -1.4553    0.7606 H   0  0  0  0  0  0  0  0  0  0  0  0
    3.6766   -1.0431   -1.9906 H   0  0  0  0  0  0  0  0  0  0  0  0
    4.8367   -3.0672   -1.4395 H   0  0  0  0  0  0  0  0  0  0  0  0
    6.7703   -4.1356   -0.3030 H   0  0  0  0  0  0  0  0  0  0  0  0
    8.0250   -2.8926    1.4519 H   0  0  0  0  0  0  0  0  0  0  0  0
    7.3367   -0.5788    2.0568 H   0  0  0  0  0  0  0  0  0  0  0  0
    5.3995    0.4855    0.9119 H   0  0  0  0  0  0  0  0  0  0  0  0
    0.3553    0.0734   -1.6573 H   0  0  0  0  0  0  0  0  0  0  0  0
   -1.2280   -1.2026   -3.0809 H   0  0  0  0  0  0  0  0  0  0  0  0
   -1.1206   -3.6919   -3.1505 H   0  0  0  0  0  0  0  0  0  0  0  0
    0.5891   -4.8919   -1.7965 H   0  0  0  0  0  0  0  0  0  0  0  0
    2.1933   -3.6079   -0.3973 H   0  0  0  0  0  0  0  0  0  0  0  0
   -4.8364   -3.0675    1.4393 H   0  0  0  0  0  0  0  0  0  0  0  0
   -6.7699   -4.1360    0.3028 H   0  0  0  0  0  0  0  0  0  0  0  0
   -8.0248   -2.8929   -1.4520 H   0  0  0  0  0  0  0  0  0  0  0  0
   -7.3368   -0.5790   -2.0567 H   0  0  0  0  0  0  0  0  0  0  0  0
   -5.3997    0.4854   -0.9117 H   0  0  0  0  0  0  0  0  0  0  0  0
   -2.1928   -3.6079    0.3973 H   0  0  0  0  0  0  0  0  0  0  0  0
   -0.5886   -4.8917    1.7967 H   0  0  0  0  0  0  0  0  0  0  0  0
    1.1208   -3.6915    3.1508 H   0  0  0  0  0  0  0  0  0  0  0  0
    1.2279   -1.2021    3.0811 H   0  0  0  0  0  0  0  0  0  0  0  0
   -0.3554    0.0737    1.6573 H   0  0  0  0  0  0  0  0  0  0  0  0
  1  2  1  0  0  0  0
  1  5  2  0  0  0  0
  1 13  1  0  0  0  0
  2  3  2  0  0  0  0
  2  6  1  0  0  0  0
  3  4  1  0  0  0  0
  3  9  1  0  0  0  0
  4  5  1  0  0  0  0
  5 10  1  0  0  0  0
  6  7  2  0  0  0  0
  6 48  1  0  0  0  0
  7  8  1  0  0  0  0
  7 49  1  0  0  0  0
  8  9  2  0  0  0  0
  8 50  1  0  0  0  0
  9 14  1  0  0  0  0
 10 11  2  0  0  0  0
 10 15  1  0  0  0  0
 11 12  1  0  0  0  0
 11 51  1  0  0  0  0
 12 13  2  0  0  0  0
 12 52  1  0  0  0  0
 13 53  1  0  0  0  0
 14 16  2  0  0  0  0
 14 19  1  0  0  0  0
 15 20  1  0  0  0  0
 15 23  2  0  0  0  0
 16 17  1  0  0  0  0
 17 18  1  0  0  0  0
 17 25  1  0  0  0  0
 17 54  1  1  0  0  0
 18 19  1  0  0  0  0
 18 27  1  0  0  0  0
 18 55  1  6  0  0  0
 20 21  1  0  0  0  0
 21 22  1  0  0  0  0
 21 26  1  0  0  0  0
 21 56  1  1  0  0  0
 22 23  1  0  0  0  0
 22 24  1  0  0  0  0
 22 57  1  6  0  0  0
 24 28  2  0  0  0  0
 24 32  1  0  0  0  0
 25 38  2  0  0  0  0
 25 42  1  0  0  0  0
 26 33  2  0  0  0  0
 26 37  1  0  0  0  0
 27 43  2  0  0  0  0
 27 47  1  0  0  0  0
 28 29  1  0  0  0  0
 28 58  1  0  0  0  0
 29 30  2  0  0  0  0
 29 59  1  0  0  0  0
 30 31  1  0  0  0  0
 30 60  1  0  0  0  0
 31 32  2  0  0  0  0
 31 61  1  0  0  0  0
 32 62  1  0  0  0  0
 33 34  1  0  0  0  0
 33 63  1  0  0  0  0
 34 35  2  0  0  0  0
 34 64  1  0  0  0  0
 35 36  1  0  0  0  0
 35 65  1  0  0  0  0
 36 37  2  0  0  0  0
 36 66  1  0  0  0  0
 37 67  1  0  0  0  0
 38 39  1  0  0  0  0
 38 68  1  0  0  0  0
 39 40  2  0  0  0  0
 39 69  1  0  0  0  0
 40 41  1  0  0  0  0
 40 70  1  0  0  0  0
 41 42  2  0  0  0  0
 41 71  1  0  0  0  0
 42 72  1  0  0  0  0
 43 44  1  0  0  0  0
 43 73  1  0  0  0  0
 44 45  2  0  0  0  0
 44 74  1  0  0  0  0
 45 46  1  0  0  0  0
 45 75  1  0  0  0  0
 46 47  2  0  0  0  0
 46 76  1  0  0  0  0
 47 77  1  0  0  0  0
M  END
$$$$
