Title Card Required
 OpenBabel03192317463D

 70 75  0  0  0  0  0  0  0  0999 V2000
   -1.1053   -0.3243    0.9277 O   0  0  0  0  0  0  0  0  0  0  0  0
   -0.1916   -1.4703    0.2376 P   0  0  2  0  0  0  0  0  0  0  0  0
    0.9149   -0.5688   -0.5379 O   0  0  0  0  0  0  0  0  0  0  0  0
    1.5254    0.4911    0.1146 C   0  0  0  0  0  0  0  0  0  0  0  0
    0.7687    1.6513    0.3582 C   0  0  0  0  0  0  0  0  0  0  0  0
   -0.6236    1.7397   -0.1702 C   0  0  0  0  0  0  0  0  0  0  0  0
   -1.5417    0.7247    0.1416 C   0  0  0  0  0  0  0  0  0  0  0  0
    2.8812    0.3978    0.4463 C   0  0  0  0  0  0  0  0  0  0  0  0
    3.4611    1.4918    1.1010 C   0  0  0  0  0  0  0  0  0  0  0  0
    2.7206    2.6199    1.4354 C   0  0  0  0  0  0  0  0  0  0  0  0
    3.2863    3.7819    2.2061 C   0  0  0  0  0  0  0  0  0  0  0  0
    2.3901    4.1273    3.4075 C   0  0  0  0  0  0  0  0  0  0  0  0
    0.8894    4.1563    3.0351 C   0  0  0  0  0  0  0  0  0  0  0  0
    0.6413    3.9420    1.5314 C   0  0  0  0  0  0  0  0  0  0  0  0
    1.3681    2.7070    1.0645 C   0  0  0  0  0  0  0  0  0  0  0  0
   -2.8591    0.7165   -0.3328 C   0  0  0  0  0  0  0  0  0  0  0  0
   -3.2546    1.7901   -1.1417 C   0  0  0  0  0  0  0  0  0  0  0  0
   -2.3724    2.8100   -1.4801 C   0  0  0  0  0  3  0  0  0  0  0  0
   -2.7581    3.9674   -2.3614 C   0  0  0  0  0  3  0  0  0  0  0  0
   -1.7580    4.1385   -3.5173 C   0  0  0  0  0  0  0  0  0  0  0  0
   -0.2900    4.0124   -3.0501 C   0  0  0  0  0  0  0  0  0  0  0  0
   -0.1518    3.8833   -1.5239 C   0  0  0  0  0  0  0  0  0  0  0  0
   -1.0457    2.7837   -1.0113 C   0  0  0  0  0  0  0  0  0  0  0  0
   -3.8006   -0.3934   -0.0303 C   0  0  0  0  0  0  0  0  0  0  0  0
   -3.8874   -0.9557    1.2531 C   0  0  0  0  0  0  0  0  0  0  0  0
   -4.7938   -1.9750    1.5201 C   0  0  0  0  0  0  0  0  0  0  0  0
   -5.6085   -2.4294    0.4899 C   0  0  0  0  0  0  0  0  0  0  0  0
   -5.5487   -1.9019   -0.7934 C   0  0  0  0  0  0  0  0  0  0  0  0
   -4.6395   -0.8807   -1.0445 C   0  0  0  0  0  0  0  0  0  0  0  0
   -6.5762   -3.5104    0.7686 N   0  0  0  0  0  0  0  0  0  0  0  0
   -6.6141   -3.9440    1.8936 O   0  0  0  0  0  0  0  0  0  0  0  0
   -7.2668   -3.8837   -0.1484 O   0  0  0  0  0  0  0  0  0  0  0  0
    3.7267   -0.7689    0.0739 C   0  0  0  0  0  0  0  0  0  0  0  0
    4.9356   -0.5278   -0.5970 C   0  0  0  0  0  0  0  0  0  0  0  0
    5.7789   -1.5743   -0.9518 C   0  0  0  0  0  0  0  0  0  0  0  0
    5.3952   -2.8678   -0.6201 C   0  0  0  0  0  0  0  0  0  0  0  0
    4.2090   -3.1435    0.0490 C   0  0  0  0  0  0  0  0  0  0  0  0
    3.3719   -2.0870    0.3960 C   0  0  0  0  0  0  0  0  0  0  0  0
    6.2830   -3.9876   -0.9929 N   0  0  0  0  0  0  0  0  0  0  0  0
    7.2924   -3.7172   -1.5983 O   0  0  0  0  0  0  0  0  0  0  0  0
    5.9420   -5.0988   -0.6695 O   0  0  0  0  0  0  0  0  0  0  0  0
   -1.0306   -2.0408   -0.9841 O   0  0  0  0  0  0  0  0  0  0  0  0
    0.2763   -2.4678    1.1946 O   0  0  0  0  0  0  0  0  0  0  0  0
    4.5155    1.4349    1.3818 H   0  0  0  0  0  0  0  0  0  0  0  0
    4.3128    3.5686    2.5339 H   0  0  0  0  0  0  0  0  0  0  0  0
    3.3419    4.6578    1.5373 H   0  0  0  0  0  0  0  0  0  0  0  0
    2.7066    5.0948    3.8219 H   0  0  0  0  0  0  0  0  0  0  0  0
    2.5599    3.3793    4.1945 H   0  0  0  0  0  0  0  0  0  0  0  0
    0.4325    5.1081    3.3398 H   0  0  0  0  0  0  0  0  0  0  0  0
    0.3557    3.3646    3.5799 H   0  0  0  0  0  0  0  0  0  0  0  0
    1.0151    4.8184    0.9744 H   0  0  0  0  0  0  0  0  0  0  0  0
   -0.4354    3.8722    1.3298 H   0  0  0  0  0  0  0  0  0  0  0  0
   -4.2845    1.8281   -1.5040 H   0  0  0  0  0  0  0  0  0  0  0  0
   -3.7797    3.8405   -2.7446 H   0  0  0  0  0  0  0  0  0  0  0  0
   -2.7614    4.8864   -1.7510 H   0  0  0  0  0  0  0  0  0  0  0  0
   -1.9309    5.1124   -3.9963 H   0  0  0  0  0  0  0  0  0  0  0  0
   -1.9693    3.3752   -4.2795 H   0  0  0  0  0  0  0  0  0  0  0  0
    0.2999    4.8754   -3.3886 H   0  0  0  0  0  0  0  0  0  0  0  0
    0.1707    3.1237   -3.5049 H   0  0  0  0  0  0  0  0  0  0  0  0
   -0.4434    4.8357   -1.0478 H   0  0  0  0  0  0  0  0  0  0  0  0
    0.8963    3.7020   -1.2561 H   0  0  0  0  0  0  0  0  0  0  0  0
   -3.2409   -0.5878    2.0486 H   0  0  0  0  0  0  0  0  0  0  0  0
   -4.8838   -2.4215    2.5091 H   0  0  0  0  0  0  0  0  0  0  0  0
   -6.2041   -2.2990   -1.5667 H   0  0  0  0  0  0  0  0  0  0  0  0
   -4.5677   -0.4641   -2.0507 H   0  0  0  0  0  0  0  0  0  0  0  0
    5.2080    0.4959   -0.8593 H   0  0  0  0  0  0  0  0  0  0  0  0
    6.7164   -1.4102   -1.4801 H   0  0  0  0  0  0  0  0  0  0  0  0
    3.9576   -4.1745    0.2932 H   0  0  0  0  0  0  0  0  0  0  0  0
    2.4441   -2.2964    0.9302 H   0  0  0  0  0  0  0  0  0  0  0  0
   -1.2714   -1.3798   -1.6494 H   0  0  0  0  0  0  0  0  0  0  0  0
  1  2  1  0  0  0  0
  1  7  1  0  0  0  0
  2  3  1  0  0  0  0
  2 42  1  0  0  0  0
  2 43  2  1  0  0  0
  3  4  1  0  0  0  0
  4  5  2  0  0  0  0
  4  8  1  0  0  0  0
  5  6  1  0  0  0  0
  5 15  1  0  0  0  0
  6  7  2  0  0  0  0
  6 23  1  0  0  0  0
  7 16  1  0  0  0  0
  8  9  2  0  0  0  0
  8 33  1  0  0  0  0
  9 10  1  0  0  0  0
  9 44  1  0  0  0  0
 10 11  1  0  0  0  0
 10 15  2  0  0  0  0
 11 12  1  0  0  0  0
 11 45  1  0  0  0  0
 11 46  1  0  0  0  0
 12 13  1  0  0  0  0
 12 47  1  0  0  0  0
 12 48  1  0  0  0  0
 13 14  1  0  0  0  0
 13 49  1  0  0  0  0
 13 50  1  0  0  0  0
 14 15  1  0  0  0  0
 14 51  1  0  0  0  0
 14 52  1  0  0  0  0
 16 17  2  0  0  0  0
 16 24  1  0  0  0  0
 17 18  1  0  0  0  0
 17 53  1  0  0  0  0
 18 23  2  0  0  0  0
 19 20  1  0  0  0  0
 19 54  1  0  0  0  0
 19 55  1  0  0  0  0
 20 21  1  0  0  0  0
 20 56  1  0  0  0  0
 20 57  1  0  0  0  0
 21 22  1  0  0  0  0
 21 58  1  0  0  0  0
 21 59  1  0  0  0  0
 22 23  1  0  0  0  0
 22 60  1  0  0  0  0
 22 61  1  0  0  0  0
 24 25  2  0  0  0  0
 24 29  1  0  0  0  0
 25 26  1  0  0  0  0
 25 62  1  0  0  0  0
 26 27  2  0  0  0  0
 26 63  1  0  0  0  0
 27 28  1  0  0  0  0
 27 30  1  0  0  0  0
 28 29  2  0  0  0  0
 28 64  1  0  0  0  0
 29 65  1  0  0  0  0
 30 31  2  0  0  0  0
 30 32  2  0  0  0  0
 33 34  2  0  0  0  0
 33 38  1  0  0  0  0
 34 35  1  0  0  0  0
 34 66  1  0  0  0  0
 35 36  2  0  0  0  0
 35 67  1  0  0  0  0
 36 37  1  0  0  0  0
 36 39  1  0  0  0  0
 37 38  2  0  0  0  0
 37 68  1  0  0  0  0
 38 69  1  0  0  0  0
 39 40  2  0  0  0  0
 39 41  2  0  0  0  0
 42 70  1  0  0  0  0
M  END
$$$$
