Title Card Required
 OpenBabel03192317553D

 76 83  0  0  0  0  0  0  0  0999 V2000
   -1.7341    0.0079    0.4649 C   0  0  0  0  0  0  0  0  0  0  0  0
   -2.9105    0.7770    0.4668 C   0  0  0  0  0  0  0  0  0  0  0  0
   -2.9263    1.9654   -0.2633 C   0  0  0  0  0  0  0  0  0  0  0  0
   -1.8223    2.4083   -0.9924 C   0  0  0  0  0  0  0  0  0  0  0  0
   -0.6545    1.6249   -0.9961 C   0  0  0  0  0  0  0  0  0  0  0  0
   -0.6120    0.4269   -0.2618 C   0  0  0  0  0  0  0  0  0  0  0  0
    0.6120   -0.4271   -0.2616 C   0  0  0  0  0  0  0  0  0  0  0  0
    0.6545   -1.6254   -0.9954 C   0  0  0  0  0  0  0  0  0  0  0  0
    1.8224   -2.4088   -0.9913 C   0  0  0  0  0  0  0  0  0  0  0  0
    2.9263   -1.9655   -0.2624 C   0  0  0  0  0  0  0  0  0  0  0  0
    2.9105   -0.7769    0.4672 C   0  0  0  0  0  0  0  0  0  0  0  0
    1.7340   -0.0077    0.4649 C   0  0  0  0  0  0  0  0  0  0  0  0
   -1.9153    3.7051   -1.7718 C   0  0  0  0  0  0  0  0  0  0  0  0
   -0.5481    4.2684   -2.1426 C   0  0  0  0  0  0  0  0  0  0  0  0
    0.3017    3.1721   -2.7750 C   0  0  0  0  0  0  0  0  0  0  0  0
    0.5749    2.0604   -1.7662 C   0  0  0  0  0  0  0  0  0  0  0  0
   -0.5748   -2.0613   -1.7654 C   0  0  0  0  0  0  0  0  0  0  0  0
   -0.3016   -3.1733   -2.7737 C   0  0  0  0  0  0  0  0  0  0  0  0
    0.5483   -4.2693   -2.1409 C   0  0  0  0  0  0  0  0  0  0  0  0
    1.9154   -3.7059   -1.7702 C   0  0  0  0  0  0  0  0  0  0  0  0
   -1.6455   -1.1632    1.1405 O   0  0  0  0  0  0  0  0  0  0  0  0
    1.6454    1.1637    1.1400 O   0  0  0  0  0  0  0  0  0  0  0  0
   -4.0952    0.3285    1.2524 C   0  0  0  0  0  0  0  0  0  0  0  0
    4.0951   -0.3280    1.2526 C   0  0  0  0  0  0  0  0  0  0  0  0
   -4.0095    0.2425    2.6294 C   0  0  0  0  0  0  0  0  0  0  0  0
   -5.1150   -0.1633    3.4156 C   0  0  0  0  0  0  0  0  0  0  0  0
   -6.3079   -0.4764    2.8154 C   0  0  0  0  0  0  0  0  0  0  0  0
   -6.4427   -0.4169    1.4014 C   0  0  0  0  0  0  0  0  0  0  0  0
   -5.3268   -0.0231    0.6034 C   0  0  0  0  0  0  0  0  0  0  0  0
    4.0094   -0.2413    2.6296 C   0  0  0  0  0  0  0  0  0  0  0  0
    5.1149    0.1650    3.4155 C   0  0  0  0  0  0  0  0  0  0  0  0
    6.3078    0.4778    2.8152 C   0  0  0  0  0  0  0  0  0  0  0  0
    6.4426    0.4177    1.4013 C   0  0  0  0  0  0  0  0  0  0  0  0
    5.3268    0.0234    0.6035 C   0  0  0  0  0  0  0  0  0  0  0  0
   -7.6672   -0.7557    0.7632 C   0  0  0  0  0  0  0  0  0  0  0  0
   -7.7822   -0.7207   -0.6041 C   0  0  0  0  0  0  0  0  0  0  0  0
   -6.6697   -0.3515   -1.3990 C   0  0  0  0  0  0  0  0  0  0  0  0
   -5.4744   -0.0118   -0.8124 C   0  0  0  0  0  0  0  0  0  0  0  0
    7.6671    0.7562    0.7629 C   0  0  0  0  0  0  0  0  0  0  0  0
    7.7821    0.7205   -0.6044 C   0  0  0  0  0  0  0  0  0  0  0  0
    6.6696    0.3508   -1.3991 C   0  0  0  0  0  0  0  0  0  0  0  0
    5.4743    0.0113   -0.8123 C   0  0  0  0  0  0  0  0  0  0  0  0
   -3.8380    2.5699   -0.2536 H   0  0  0  0  0  0  0  0  0  0  0  0
    3.8381   -2.5700   -0.2524 H   0  0  0  0  0  0  0  0  0  0  0  0
   -2.4897    3.5263   -2.6981 H   0  0  0  0  0  0  0  0  0  0  0  0
   -2.4957    4.4368   -1.1895 H   0  0  0  0  0  0  0  0  0  0  0  0
   -0.0420    4.6439   -1.2371 H   0  0  0  0  0  0  0  0  0  0  0  0
   -0.6642    5.1225   -2.8257 H   0  0  0  0  0  0  0  0  0  0  0  0
    1.2543    3.5751   -3.1489 H   0  0  0  0  0  0  0  0  0  0  0  0
   -0.2347    2.7619   -3.6480 H   0  0  0  0  0  0  0  0  0  0  0  0
    1.3230    2.4009   -1.0299 H   0  0  0  0  0  0  0  0  0  0  0  0
    1.0219    1.1853   -2.2623 H   0  0  0  0  0  0  0  0  0  0  0  0
   -1.3229   -2.4014   -1.0289 H   0  0  0  0  0  0  0  0  0  0  0  0
   -1.0218   -1.1864   -2.2619 H   0  0  0  0  0  0  0  0  0  0  0  0
   -1.2542   -3.5765   -3.1475 H   0  0  0  0  0  0  0  0  0  0  0  0
    0.2348   -2.7635   -3.6469 H   0  0  0  0  0  0  0  0  0  0  0  0
    0.0422   -4.6446   -1.2352 H   0  0  0  0  0  0  0  0  0  0  0  0
    0.6644   -5.1238   -2.8236 H   0  0  0  0  0  0  0  0  0  0  0  0
    2.4899   -3.5274   -2.6966 H   0  0  0  0  0  0  0  0  0  0  0  0
    2.4959   -4.4373   -1.1876 H   0  0  0  0  0  0  0  0  0  0  0  0
   -2.4966   -1.3544    1.5569 H   0  0  0  0  0  0  0  0  0  0  0  0
    2.4965    1.3550    1.5564 H   0  0  0  0  0  0  0  0  0  0  0  0
   -3.0710    0.5157    3.1179 H   0  0  0  0  0  0  0  0  0  0  0  0
   -5.0137   -0.2108    4.5007 H   0  0  0  0  0  0  0  0  0  0  0  0
   -7.1704   -0.7794    3.4126 H   0  0  0  0  0  0  0  0  0  0  0  0
    3.0710   -0.5143    3.1182 H   0  0  0  0  0  0  0  0  0  0  0  0
    5.0137    0.2130    4.5006 H   0  0  0  0  0  0  0  0  0  0  0  0
    7.1703    0.7812    3.4123 H   0  0  0  0  0  0  0  0  0  0  0  0
   -8.5157   -1.0491    1.3849 H   0  0  0  0  0  0  0  0  0  0  0  0
   -8.7266   -0.9835   -1.0829 H   0  0  0  0  0  0  0  0  0  0  0  0
   -6.7629   -0.3410   -2.4859 H   0  0  0  0  0  0  0  0  0  0  0  0
   -4.6185    0.2646   -1.4289 H   0  0  0  0  0  0  0  0  0  0  0  0
    8.5156    1.0499    1.3844 H   0  0  0  0  0  0  0  0  0  0  0  0
    8.7265    0.9831   -1.0834 H   0  0  0  0  0  0  0  0  0  0  0  0
    6.7628    0.3398   -2.4860 H   0  0  0  0  0  0  0  0  0  0  0  0
    4.6184   -0.2654   -1.4287 H   0  0  0  0  0  0  0  0  0  0  0  0
  1  2  2  0  0  0  0
  1  6  1  0  0  0  0
  1 21  1  0  0  0  0
  2  3  1  0  0  0  0
  2 23  1  0  0  0  0
  3  4  2  0  0  0  0
  3 43  1  0  0  0  0
  4  5  1  0  0  0  0
  4 13  1  0  0  0  0
  5  6  2  0  0  0  0
  5 16  1  0  0  0  0
  6  7  1  0  0  0  0
  7  8  2  0  0  0  0
  7 12  1  0  0  0  0
  8  9  1  0  0  0  0
  8 17  1  0  0  0  0
  9 10  2  0  0  0  0
  9 20  1  0  0  0  0
 10 11  1  0  0  0  0
 10 44  1  0  0  0  0
 11 12  2  0  0  0  0
 11 24  1  0  0  0  0
 12 22  1  0  0  0  0
 13 14  1  0  0  0  0
 13 45  1  0  0  0  0
 13 46  1  0  0  0  0
 14 15  1  0  0  0  0
 14 47  1  0  0  0  0
 14 48  1  0  0  0  0
 15 16  1  0  0  0  0
 15 49  1  0  0  0  0
 15 50  1  0  0  0  0
 16 51  1  0  0  0  0
 16 52  1  0  0  0  0
 17 18  1  0  0  0  0
 17 53  1  0  0  0  0
 17 54  1  0  0  0  0
 18 19  1  0  0  0  0
 18 55  1  0  0  0  0
 18 56  1  0  0  0  0
 19 20  1  0  0  0  0
 19 57  1  0  0  0  0
 19 58  1  0  0  0  0
 20 59  1  0  0  0  0
 20 60  1  0  0  0  0
 21 61  1  0  0  0  0
 22 62  1  0  0  0  0
 23 25  2  0  0  0  0
 23 29  1  0  0  0  0
 24 30  2  0  0  0  0
 24 34  1  0  0  0  0
 25 26  1  0  0  0  0
 25 63  1  0  0  0  0
 26 27  2  0  0  0  0
 26 64  1  0  0  0  0
 27 28  1  0  0  0  0
 27 65  1  0  0  0  0
 28 29  2  0  0  0  0
 28 35  1  0  0  0  0
 29 38  1  0  0  0  0
 30 31  1  0  0  0  0
 30 66  1  0  0  0  0
 31 32  2  0  0  0  0
 31 67  1  0  0  0  0
 32 33  1  0  0  0  0
 32 68  1  0  0  0  0
 33 34  2  0  0  0  0
 33 39  1  0  0  0  0
 34 42  1  0  0  0  0
 35 36  2  0  0  0  0
 35 69  1  0  0  0  0
 36 37  1  0  0  0  0
 36 70  1  0  0  0  0
 37 38  2  0  0  0  0
 37 71  1  0  0  0  0
 38 72  1  0  0  0  0
 39 40  2  0  0  0  0
 39 73  1  0  0  0  0
 40 41  1  0  0  0  0
 40 74  1  0  0  0  0
 41 42  2  0  0  0  0
 41 75  1  0  0  0  0
 42 76  1  0  0  0  0
M  END
$$$$
