Title Card Required
 OpenBabel03192317433D

 52 54  0  0  0  0  0  0  0  0999 V2000
   -0.7972   -3.0677    1.4970 C   0  0  0  0  0  0  0  0  0  0  0  0
   -2.2726    0.2480   -3.2596 C   0  0  0  0  0  0  0  0  0  0  0  0
    0.5040    2.5627   -0.1087 C   0  0  0  0  0  0  0  0  0  0  0  0
    2.3750    3.1012    1.4723 C   0  0  0  0  0  0  0  0  0  0  0  0
    2.8656    2.0784   -0.7665 C   0  0  0  0  0  0  0  0  0  0  0  0
   -3.0529   -0.7309    3.1038 C   0  0  0  0  0  0  0  0  0  0  0  0
   -3.9318    1.9499   -1.1073 C   0  0  0  0  0  0  0  0  0  0  0  0
    1.8807    2.1231    0.4007 C   0  0  0  0  0  0  0  0  0  0  0  0
    2.5548   -1.1667   -0.6138 C   0  0  0  0  0  0  0  0  0  0  0  0
    2.6038   -1.9841   -1.7413 C   0  0  0  0  0  0  0  0  0  0  0  0
    1.4023   -2.3025   -2.3725 C   0  0  0  0  0  0  0  0  0  0  0  0
    0.1836   -1.8279   -1.8868 C   0  0  0  0  0  0  0  0  0  0  0  0
    0.1391   -1.0048   -0.7528 C   0  0  0  0  0  0  0  0  0  0  0  0
    1.3417   -0.6607   -0.1260 C   0  0  0  0  0  0  0  0  0  0  0  0
    3.3870   -0.2045    1.3016 C   0  0  0  0  0  0  0  0  0  0  0  0
   -1.1539   -0.5185   -0.1932 C   0  0  0  0  0  0  0  0  0  0  0  0
   -1.5385   -0.8692    1.1103 C   0  0  0  0  0  0  0  0  0  0  0  0
   -2.6975   -0.3423    1.6952 C   0  0  0  0  0  0  0  0  0  0  0  0
   -1.9703    0.3635   -0.9205 C   0  0  0  0  0  0  0  0  0  0  0  0
   -3.1218    0.9270   -0.3552 C   0  0  0  0  0  0  0  0  0  0  0  0
   -3.4598    0.5551    0.9488 C   0  0  0  0  0  0  0  0  0  0  0  0
    3.6784   -0.8119    0.0455 O   0  0  0  0  0  0  0  0  0  0  0  0
    1.6294    0.4652    1.2964 P   0  0  1  0  0  0  0  0  0  0  0  0
   -0.7705   -1.7062    1.8693 O   0  0  0  0  0  0  0  0  0  0  0  0
   -1.5458    0.7535   -2.1632 O   0  0  0  0  0  0  0  0  0  0  0  0
   -0.2123   -3.6156    2.2455 H   0  0  0  0  0  0  0  0  0  0  0  0
   -0.3479   -3.2258    0.5035 H   0  0  0  0  0  0  0  0  0  0  0  0
   -1.8307   -3.4539    1.4909 H   0  0  0  0  0  0  0  0  0  0  0  0
   -2.3776   -0.8473   -3.1983 H   0  0  0  0  0  0  0  0  0  0  0  0
   -3.2783    0.6931   -3.3274 H   0  0  0  0  0  0  0  0  0  0  0  0
   -1.7080    0.5042   -4.1643 H   0  0  0  0  0  0  0  0  0  0  0  0
   -0.2628    2.5065    0.6814 H   0  0  0  0  0  0  0  0  0  0  0  0
    0.5567    3.6062   -0.4612 H   0  0  0  0  0  0  0  0  0  0  0  0
    0.1737    1.9417   -0.9549 H   0  0  0  0  0  0  0  0  0  0  0  0
    3.3510    2.7984    1.8845 H   0  0  0  0  0  0  0  0  0  0  0  0
    2.4982    4.1048    1.0338 H   0  0  0  0  0  0  0  0  0  0  0  0
    1.6606    3.1766    2.3059 H   0  0  0  0  0  0  0  0  0  0  0  0
    3.8750    1.7771   -0.4505 H   0  0  0  0  0  0  0  0  0  0  0  0
    2.5281    1.3827   -1.5490 H   0  0  0  0  0  0  0  0  0  0  0  0
    2.9409    3.0807   -1.2209 H   0  0  0  0  0  0  0  0  0  0  0  0
   -3.9605   -0.2113    3.4364 H   0  0  0  0  0  0  0  0  0  0  0  0
   -3.2235   -1.8146    3.1862 H   0  0  0  0  0  0  0  0  0  0  0  0
   -2.2297   -0.4874    3.7901 H   0  0  0  0  0  0  0  0  0  0  0  0
   -4.7195    1.4824   -1.7192 H   0  0  0  0  0  0  0  0  0  0  0  0
   -4.4252    2.6373   -0.4078 H   0  0  0  0  0  0  0  0  0  0  0  0
   -3.2867    2.5356   -1.7767 H   0  0  0  0  0  0  0  0  0  0  0  0
    3.5637   -2.3562   -2.0990 H   0  0  0  0  0  0  0  0  0  0  0  0
    1.4155   -2.9459   -3.2539 H   0  0  0  0  0  0  0  0  0  0  0  0
   -0.7479   -2.1166   -2.3751 H   0  0  0  0  0  0  0  0  0  0  0  0
    4.1310    0.5822    1.4893 H   0  0  0  0  0  0  0  0  0  0  0  0
    3.4786   -0.9673    2.0925 H   0  0  0  0  0  0  0  0  0  0  0  0
   -4.3484    0.9982    1.4066 H   0  0  0  0  0  0  0  0  0  0  0  0
  1 24  1  0  0  0  0
  1 26  1  0  0  0  0
  1 27  1  0  0  0  0
  1 28  1  0  0  0  0
  2 25  1  0  0  0  0
  2 29  1  0  0  0  0
  2 30  1  0  0  0  0
  2 31  1  0  0  0  0
  3  8  1  0  0  0  0
  3 32  1  0  0  0  0
  3 33  1  0  0  0  0
  3 34  1  0  0  0  0
  4  8  1  0  0  0  0
  4 35  1  0  0  0  0
  4 36  1  0  0  0  0
  4 37  1  0  0  0  0
  5  8  1  0  0  0  0
  5 38  1  0  0  0  0
  5 39  1  0  0  0  0
  5 40  1  0  0  0  0
  6 18  1  0  0  0  0
  6 41  1  0  0  0  0
  6 42  1  0  0  0  0
  6 43  1  0  0  0  0
  7 20  1  0  0  0  0
  7 44  1  0  0  0  0
  7 45  1  0  0  0  0
  7 46  1  0  0  0  0
  9 10  2  0  0  0  0
  9 14  1  0  0  0  0
  9 22  1  0  0  0  0
 10 11  1  0  0  0  0
 10 47  1  0  0  0  0
 11 12  2  0  0  0  0
 11 48  1  0  0  0  0
 12 13  1  0  0  0  0
 12 49  1  0  0  0  0
 13 14  2  0  0  0  0
 13 16  1  0  0  0  0
 14 23  1  0  0  0  0
 15 22  1  0  0  0  0
 15 23  1  0  0  0  0
 15 50  1  0  0  0  0
 15 51  1  0  0  0  0
 16 17  2  0  0  0  0
 16 19  1  0  0  0  0
 17 18  1  0  0  0  0
 17 24  1  0  0  0  0
 18 21  2  0  0  0  0
 19 20  2  0  0  0  0
 19 25  1  0  0  0  0
 20 21  1  0  0  0  0
 21 52  1  0  0  0  0
 23  8  1  6  0  0  0
M  END
$$$$
