Title Card Required
 OpenBabel03192317513D

 39 42  0  0  1  0  0  0  0  0999 V2000
    1.1109    0.4345   -1.4865 O   0  0  0  0  0  0  0  0  0  0  0  0
    1.5500   -0.5059   -0.6270 C   0  0  0  0  0  0  0  0  0  0  0  0
    0.7524   -1.4334   -0.2886 N   0  0  0  0  0  0  0  0  0  0  0  0
   -0.4808   -1.2091   -1.0391 C   0  0  2  0  0  0  0  0  0  0  0  0
   -0.3054    0.2648   -1.5677 C   0  0  1  0  0  0  0  0  0  0  0  0
    2.9468   -0.3732   -0.1440 C   0  0  0  0  0  0  0  0  0  0  0  0
    3.5455   -1.4620    0.4988 C   0  0  0  0  0  0  0  0  0  0  0  0
    4.8502   -1.3142    0.9549 C   0  0  0  0  0  0  0  0  0  0  0  0
    5.4950   -0.0951    0.7552 C   0  0  0  0  0  0  0  0  0  0  0  0
    4.7991    0.9277    0.1085 C   0  0  0  0  0  0  0  0  0  0  0  0
    3.5529    0.7967   -0.3347 N   0  0  0  0  0  0  0  0  0  0  0  0
   -1.0017    1.3246   -0.7443 C   0  0  0  0  0  0  0  0  0  0  0  0
   -2.3796    1.5166   -0.8914 C   0  0  0  0  0  0  0  0  0  0  0  0
   -3.0545    2.4302   -0.0883 C   0  0  0  0  0  0  0  0  0  0  0  0
   -2.3550    3.1713    0.8656 C   0  0  0  0  0  0  0  0  0  0  0  0
   -0.9792    3.0014    0.9984 C   0  0  0  0  0  0  0  0  0  0  0  0
   -0.3006    2.0843    0.1944 C   0  0  0  0  0  0  0  0  0  0  0  0
   -1.7371   -1.4625   -0.2464 C   0  0  0  0  0  0  0  0  0  0  0  0
   -1.7885   -1.1682    1.1188 C   0  0  0  0  0  0  0  0  0  0  0  0
   -2.9804   -1.3116    1.8238 C   0  0  0  0  0  0  0  0  0  0  0  0
   -4.1330   -1.7540    1.1728 C   0  0  0  0  0  0  0  0  0  0  0  0
   -4.0844   -2.0632   -0.1852 C   0  0  0  0  0  0  0  0  0  0  0  0
   -2.8887   -1.9211   -0.8889 C   0  0  0  0  0  0  0  0  0  0  0  0
   -0.4762   -1.8937   -1.9051 H   0  0  0  0  0  0  0  0  0  0  0  0
   -0.6027    0.3464   -2.6215 H   0  0  0  0  0  0  0  0  0  0  0  0
    2.9769   -2.3836    0.6220 H   0  0  0  0  0  0  0  0  0  0  0  0
    5.3583   -2.1381    1.4586 H   0  0  0  0  0  0  0  0  0  0  0  0
    6.5187    0.0665    1.0939 H   0  0  0  0  0  0  0  0  0  0  0  0
    5.2744    1.8992   -0.0572 H   0  0  0  0  0  0  0  0  0  0  0  0
   -2.9325    0.9317   -1.6301 H   0  0  0  0  0  0  0  0  0  0  0  0
   -4.1307    2.5651   -0.2064 H   0  0  0  0  0  0  0  0  0  0  0  0
   -2.8830    3.8877    1.4968 H   0  0  0  0  0  0  0  0  0  0  0  0
   -0.4239    3.5902    1.7303 H   0  0  0  0  0  0  0  0  0  0  0  0
    0.7817    1.9698    0.2797 H   0  0  0  0  0  0  0  0  0  0  0  0
   -0.8827   -0.8204    1.6191 H   0  0  0  0  0  0  0  0  0  0  0  0
   -3.0116   -1.0750    2.8886 H   0  0  0  0  0  0  0  0  0  0  0  0
   -5.0671   -1.8642    1.7259 H   0  0  0  0  0  0  0  0  0  0  0  0
   -4.9787   -2.4211   -0.6981 H   0  0  0  0  0  0  0  0  0  0  0  0
   -2.8513   -2.1652   -1.9540 H   0  0  0  0  0  0  0  0  0  0  0  0
  1  2  1  0  0  0  0
  1  5  1  0  0  0  0
  2  3  2  0  0  0  0
  2  6  1  0  0  0  0
  3  4  1  0  0  0  0
  4  5  1  0  0  0  0
  4 18  1  0  0  0  0
  4 24  1  6  0  0  0
  5 12  1  0  0  0  0
  5 25  1  6  0  0  0
  6  7  2  0  0  0  0
  6 11  1  0  0  0  0
  7  8  1  0  0  0  0
  7 26  1  0  0  0  0
  8  9  2  0  0  0  0
  8 27  1  0  0  0  0
  9 10  1  0  0  0  0
  9 28  1  0  0  0  0
 10 11  2  0  0  0  0
 10 29  1  0  0  0  0
 12 13  2  0  0  0  0
 12 17  1  0  0  0  0
 13 14  1  0  0  0  0
 13 30  1  0  0  0  0
 14 15  2  0  0  0  0
 14 31  1  0  0  0  0
 15 16  1  0  0  0  0
 15 32  1  0  0  0  0
 16 17  2  0  0  0  0
 16 33  1  0  0  0  0
 17 34  1  0  0  0  0
 18 19  2  0  0  0  0
 18 23  1  0  0  0  0
 19 20  1  0  0  0  0
 19 35  1  0  0  0  0
 20 21  2  0  0  0  0
 20 36  1  0  0  0  0
 21 22  1  0  0  0  0
 21 37  1  0  0  0  0
 22 23  2  0  0  0  0
 22 38  1  0  0  0  0
 23 39  1  0  0  0  0
M  END
$$$$
