Title Card Required
 OpenBabel03192317433D

 67 68  0  0  1  0  0  0  0  0999 V2000
    5.9359   -0.0151   -0.0161 C   0  0  0  0  0  0  0  0  0  0  0  0
    4.6778   -0.1164    0.8445 C   0  0  0  0  0  0  0  0  0  0  0  0
    4.2493    1.2387    1.3904 C   0  0  0  0  0  0  0  0  0  0  0  0
    3.3685   -0.6801   -0.3478 S   0  0  1  0  0  0  0  0  0  0  0  0
    3.7956   -2.0714   -0.7300 O   0  0  0  0  0  0  0  0  0  0  0  0
    2.0664   -0.8266    0.7383 N   0  0  0  0  0  0  0  0  0  0  0  0
    4.8335   -1.1724    1.9275 C   0  0  0  0  0  0  0  0  0  0  0  0
    0.7340   -0.3131    0.4064 C   0  0  1  0  0  0  0  0  0  0  0  0
    0.8365    1.1307   -0.0702 C   0  0  0  0  0  0  0  0  0  0  0  0
    1.0797    1.4404   -1.4114 C   0  0  0  0  0  0  0  0  0  0  0  0
    1.2089    2.7678   -1.8193 C   0  0  0  0  0  0  0  0  0  0  0  0
    1.0819    3.8011   -0.8918 C   0  0  0  0  0  0  0  0  0  0  0  0
    0.8288    3.5007    0.4473 C   0  0  0  0  0  0  0  0  0  0  0  0
    0.7095    2.1729    0.8527 C   0  0  0  0  0  0  0  0  0  0  0  0
   -0.0995   -1.1598   -0.5577 C   0  0  0  0  0  0  0  0  0  0  0  0
   -1.5031   -0.9850   -0.6223 C   0  0  0  0  0  0  0  0  0  0  0  0
   -2.2164   -1.7019   -1.5924 C   0  0  0  0  0  0  0  0  0  0  0  0
   -1.5853   -2.5866   -2.4653 C   0  0  0  0  0  0  0  0  0  0  0  0
   -0.2130   -2.7847   -2.3617 C   0  0  0  0  0  0  0  0  0  0  0  0
    0.5232   -2.0766   -1.4121 C   0  0  0  0  0  0  0  0  0  0  0  0
   -2.3292    0.1456    0.6078 P   0  0  0  0  0  0  0  0  0  0  0  0
   -3.4210    1.3055   -0.4337 C   0  0  0  0  0  0  0  0  0  0  0  0
   -4.7459    0.7682   -0.9791 C   0  0  0  0  0  0  0  0  0  0  0  0
   -3.7142    2.5136    0.4720 C   0  0  0  0  0  0  0  0  0  0  0  0
   -2.5460    1.7977   -1.5941 C   0  0  0  0  0  0  0  0  0  0  0  0
   -3.4038   -1.0747    1.5967 C   0  0  0  0  0  0  0  0  0  0  0  0
   -2.3920   -1.8446    2.4607 C   0  0  0  0  0  0  0  0  0  0  0  0
   -4.3073   -0.2529    2.5249 C   0  0  0  0  0  0  0  0  0  0  0  0
   -4.2455   -2.0981    0.8309 C   0  0  0  0  0  0  0  0  0  0  0  0
    5.8115    0.7323   -0.8150 H   0  0  0  0  0  0  0  0  0  0  0  0
    6.1639   -0.9869   -0.4753 H   0  0  0  0  0  0  0  0  0  0  0  0
    6.7866    0.2928    0.6099 H   0  0  0  0  0  0  0  0  0  0  0  0
    4.0214    1.9467    0.5770 H   0  0  0  0  0  0  0  0  0  0  0  0
    3.3546    1.1409    2.0203 H   0  0  0  0  0  0  0  0  0  0  0  0
    5.0636    1.6638    1.9974 H   0  0  0  0  0  0  0  0  0  0  0  0
    2.0642   -1.7685    1.1337 H   0  0  0  0  0  0  0  0  0  0  0  0
    4.9935   -2.1593    1.4696 H   0  0  0  0  0  0  0  0  0  0  0  0
    5.7021   -0.9286    2.5583 H   0  0  0  0  0  0  0  0  0  0  0  0
    3.9435   -1.2083    2.5722 H   0  0  0  0  0  0  0  0  0  0  0  0
    0.1980   -0.2792    1.3652 H   0  0  0  0  0  0  0  0  0  0  0  0
    1.1605    0.6360   -2.1456 H   0  0  0  0  0  0  0  0  0  0  0  0
    1.3998    2.9947   -2.8693 H   0  0  0  0  0  0  0  0  0  0  0  0
    1.1729    4.8400   -1.2126 H   0  0  0  0  0  0  0  0  0  0  0  0
    0.7179    4.3036    1.1779 H   0  0  0  0  0  0  0  0  0  0  0  0
    0.4957    1.9357    1.8974 H   0  0  0  0  0  0  0  0  0  0  0  0
   -3.2959   -1.5757   -1.6642 H   0  0  0  0  0  0  0  0  0  0  0  0
   -2.1696   -3.1272   -3.2115 H   0  0  0  0  0  0  0  0  0  0  0  0
    0.2967   -3.4898   -3.0200 H   0  0  0  0  0  0  0  0  0  0  0  0
    1.5981   -2.2563   -1.3471 H   0  0  0  0  0  0  0  0  0  0  0  0
   -5.4294    0.4594   -0.1757 H   0  0  0  0  0  0  0  0  0  0  0  0
   -5.2490    1.5695   -1.5462 H   0  0  0  0  0  0  0  0  0  0  0  0
   -4.6111   -0.0775   -1.6667 H   0  0  0  0  0  0  0  0  0  0  0  0
   -2.7787    2.9640    0.8353 H   0  0  0  0  0  0  0  0  0  0  0  0
   -4.2666    3.2767   -0.1009 H   0  0  0  0  0  0  0  0  0  0  0  0
   -4.3249    2.2425    1.3447 H   0  0  0  0  0  0  0  0  0  0  0  0
   -1.5831    2.1899   -1.2303 H   0  0  0  0  0  0  0  0  0  0  0  0
   -2.3373    1.0005   -2.3220 H   0  0  0  0  0  0  0  0  0  0  0  0
   -3.0680    2.6149   -2.1188 H   0  0  0  0  0  0  0  0  0  0  0  0
   -1.8103   -1.1651    3.1014 H   0  0  0  0  0  0  0  0  0  0  0  0
   -2.9275   -2.5556    3.1112 H   0  0  0  0  0  0  0  0  0  0  0  0
   -1.6918   -2.4228    1.8369 H   0  0  0  0  0  0  0  0  0  0  0  0
   -5.1251    0.2380    1.9774 H   0  0  0  0  0  0  0  0  0  0  0  0
   -4.7642   -0.9196    3.2745 H   0  0  0  0  0  0  0  0  0  0  0  0
   -3.7362    0.5211    3.0609 H   0  0  0  0  0  0  0  0  0  0  0  0
   -4.9536   -1.6325    0.1327 H   0  0  0  0  0  0  0  0  0  0  0  0
   -3.6126   -2.8003    0.2718 H   0  0  0  0  0  0  0  0  0  0  0  0
   -4.8327   -2.6895    1.5537 H   0  0  0  0  0  0  0  0  0  0  0  0
  1  2  1  0  0  0  0
  1 30  1  0  0  0  0
  1 31  1  0  0  0  0
  1 32  1  0  0  0  0
  2  3  1  0  0  0  0
  2  4  1  0  0  0  0
  2  7  1  0  0  0  0
  3 33  1  0  0  0  0
  3 34  1  0  0  0  0
  3 35  1  0  0  0  0
  4  5  2  1  0  0  0
  4  6  1  0  0  0  0
  6  8  1  0  0  0  0
  6 36  1  0  0  0  0
  7 37  1  0  0  0  0
  7 38  1  0  0  0  0
  7 39  1  0  0  0  0
  8  9  1  0  0  0  0
  8 15  1  0  0  0  0
  8 40  1  1  0  0  0
  9 10  2  0  0  0  0
  9 14  1  0  0  0  0
 10 11  1  0  0  0  0
 10 41  1  0  0  0  0
 11 12  2  0  0  0  0
 11 42  1  0  0  0  0
 12 13  1  0  0  0  0
 12 43  1  0  0  0  0
 13 14  2  0  0  0  0
 13 44  1  0  0  0  0
 14 45  1  0  0  0  0
 15 16  2  0  0  0  0
 15 20  1  0  0  0  0
 16 17  1  0  0  0  0
 16 21  1  0  0  0  0
 17 18  2  0  0  0  0
 17 46  1  0  0  0  0
 18 19  1  0  0  0  0
 18 47  1  0  0  0  0
 19 20  2  0  0  0  0
 19 48  1  0  0  0  0
 20 49  1  0  0  0  0
 21 22  1  0  0  0  0
 21 26  1  0  0  0  0
 22 23  1  0  0  0  0
 22 24  1  0  0  0  0
 22 25  1  0  0  0  0
 23 50  1  0  0  0  0
 23 51  1  0  0  0  0
 23 52  1  0  0  0  0
 24 53  1  0  0  0  0
 24 54  1  0  0  0  0
 24 55  1  0  0  0  0
 25 56  1  0  0  0  0
 25 57  1  0  0  0  0
 25 58  1  0  0  0  0
 26 27  1  0  0  0  0
 26 28  1  0  0  0  0
 26 29  1  0  0  0  0
 27 59  1  0  0  0  0
 27 60  1  0  0  0  0
 27 61  1  0  0  0  0
 28 62  1  0  0  0  0
 28 63  1  0  0  0  0
 28 64  1  0  0  0  0
 29 65  1  0  0  0  0
 29 66  1  0  0  0  0
 29 67  1  0  0  0  0
M  END
$$$$
