Title Card Required
 OpenBabel03192317573D

 31 32  0  0  1  0  0  0  0  0999 V2000
    0.1434   -1.5992    0.0111 O   0  0  0  0  0  0  0  0  0  0  0  0
    0.5550   -0.3209    0.1062 C   0  0  0  0  0  0  0  0  0  0  0  0
   -0.3205    0.5876    0.2502 N   0  0  0  0  0  0  0  0  0  0  0  0
   -1.6189   -0.0862    0.3094 C   0  0  2  0  0  0  0  0  0  0  0  0
   -1.2804   -1.5432   -0.0768 C   0  0  0  0  0  0  0  0  0  0  0  0
    2.0196   -0.0798    0.0516 C   0  0  0  0  0  0  0  0  0  0  0  0
    2.4897    1.2327    0.1776 C   0  0  0  0  0  0  0  0  0  0  0  0
    3.8621    1.4447    0.1245 C   0  0  0  0  0  0  0  0  0  0  0  0
    4.7024    0.3462   -0.0476 C   0  0  0  0  0  0  0  0  0  0  0  0
    4.1257   -0.9196   -0.1600 C   0  0  0  0  0  0  0  0  0  0  0  0
    2.8149   -1.1337   -0.1136 N   0  0  0  0  0  0  0  0  0  0  0  0
   -2.6658    0.5764   -0.5884 C   0  0  1  0  0  0  0  0  0  0  0  0
   -3.9756   -0.2262   -0.6230 C   0  0  0  0  0  0  0  0  0  0  0  0
   -4.6544   -0.4274    0.7304 C   0  0  0  0  0  0  0  0  0  0  0  0
   -2.8800    2.0311   -0.1795 C   0  0  0  0  0  0  0  0  0  0  0  0
   -1.9735   -0.0272    1.3550 H   0  0  0  0  0  0  0  0  0  0  0  0
   -1.7104   -2.3014    0.5898 H   0  0  0  0  0  0  0  0  0  0  0  0
   -1.5726   -1.7696   -1.1161 H   0  0  0  0  0  0  0  0  0  0  0  0
    1.7709    2.0405    0.3124 H   0  0  0  0  0  0  0  0  0  0  0  0
    4.2720    2.4517    0.2174 H   0  0  0  0  0  0  0  0  0  0  0  0
    5.7856    0.4624   -0.0938 H   0  0  0  0  0  0  0  0  0  0  0  0
    4.7577   -1.8027   -0.2949 H   0  0  0  0  0  0  0  0  0  0  0  0
   -2.2461    0.5665   -1.6102 H   0  0  0  0  0  0  0  0  0  0  0  0
   -4.6707    0.2893   -1.3053 H   0  0  0  0  0  0  0  0  0  0  0  0
   -3.7877   -1.2119   -1.0806 H   0  0  0  0  0  0  0  0  0  0  0  0
   -4.8696    0.5302    1.2258 H   0  0  0  0  0  0  0  0  0  0  0  0
   -5.6096   -0.9571    0.6098 H   0  0  0  0  0  0  0  0  0  0  0  0
   -4.0347   -1.0260    1.4152 H   0  0  0  0  0  0  0  0  0  0  0  0
   -1.9302    2.5791   -0.2197 H   0  0  0  0  0  0  0  0  0  0  0  0
   -3.6041    2.5231   -0.8454 H   0  0  0  0  0  0  0  0  0  0  0  0
   -3.2614    2.1027    0.8507 H   0  0  0  0  0  0  0  0  0  0  0  0
  1  2  1  0  0  0  0
  1  5  1  0  0  0  0
  2  3  2  0  0  0  0
  2  6  1  0  0  0  0
  3  4  1  0  0  0  0
  4  5  1  0  0  0  0
  4 12  1  0  0  0  0
  4 16  1  1  0  0  0
  5 17  1  0  0  0  0
  5 18  1  0  0  0  0
  6  7  2  0  0  0  0
  6 11  1  0  0  0  0
  7  8  1  0  0  0  0
  7 19  1  0  0  0  0
  8  9  2  0  0  0  0
  8 20  1  0  0  0  0
  9 10  1  0  0  0  0
  9 21  1  0  0  0  0
 10 11  2  0  0  0  0
 10 22  1  0  0  0  0
 12 13  1  0  0  0  0
 12 15  1  0  0  0  0
 12 23  1  6  0  0  0
 13 14  1  0  0  0  0
 13 24  1  0  0  0  0
 13 25  1  0  0  0  0
 14 26  1  0  0  0  0
 14 27  1  0  0  0  0
 14 28  1  0  0  0  0
 15 29  1  0  0  0  0
 15 30  1  0  0  0  0
 15 31  1  0  0  0  0
M  END
$$$$
