Title Card Required
 OpenBabel03192317453D

 59 62  0  0  1  0  0  0  0  0999 V2000
    1.2481   -0.3806   -1.5333 O   0  0  0  0  0  0  0  0  0  0  0  0
    0.6923   -1.1817   -0.5927 C   0  0  0  0  0  0  0  0  0  0  0  0
    1.3833   -2.1368   -0.1363 N   0  0  0  0  0  0  0  0  0  0  0  0
    2.7104   -2.0333   -0.7494 C   0  0  1  0  0  0  0  0  0  0  0  0
    2.5163   -0.9600   -1.8490 C   0  0  0  0  0  0  0  0  0  0  0  0
   -0.7105   -0.8045   -0.2097 C   0  0  0  0  0  0  0  0  0  0  0  0
   -0.0851    2.0910    1.8934 C   0  0  0  0  0  0  0  0  0  0  0  0
   -0.7550    2.7715    0.6744 C   0  0  2  0  0  0  0  0  0  0  0  0
   -1.1784    1.6405   -0.1547 N   0  0  0  0  0  0  0  0  0  0  0  0
   -0.6528    0.6026    0.3385 C   0  0  0  0  0  0  0  0  0  0  0  0
    0.0722    0.7326    1.4763 O   0  0  0  0  0  0  0  0  0  0  0  0
    3.7852   -1.6934    0.3122 C   0  0  0  0  0  0  0  0  0  0  0  0
    0.1621    3.7320   -0.1227 C   0  0  0  0  0  0  0  0  0  0  0  0
    3.7634   -2.7813    1.3894 C   0  0  0  0  0  0  0  0  0  0  0  0
    5.1591   -1.6783   -0.3638 C   0  0  0  0  0  0  0  0  0  0  0  0
    1.4410    3.0116   -0.5617 C   0  0  0  0  0  0  0  0  0  0  0  0
   -0.6005    4.2186   -1.3581 C   0  0  0  0  0  0  0  0  0  0  0  0
   -1.3204   -1.7570    0.8465 C   0  0  0  0  0  0  0  0  0  0  0  0
   -2.7955   -1.6995    0.5341 C   0  0  0  0  0  0  0  0  0  0  0  0
   -3.0032   -1.1935   -0.7544 C   0  0  0  0  0  0  0  0  0  0  0  0
   -1.6859   -0.8584   -1.4110 C   0  0  0  0  0  0  0  0  0  0  0  0
   -3.8743   -2.0888    1.3225 C   0  0  0  0  0  0  0  0  0  0  0  0
   -5.1676   -1.9679    0.8087 C   0  0  0  0  0  0  0  0  0  0  0  0
   -5.3741   -1.4657   -0.4773 C   0  0  0  0  0  0  0  0  0  0  0  0
   -4.2907   -1.0754   -1.2681 C   0  0  0  0  0  0  0  0  0  0  0  0
    3.4960   -0.3318    0.9523 C   0  0  0  0  0  0  0  0  0  0  0  0
    0.5103    4.9329    0.7616 C   0  0  0  0  0  0  0  0  0  0  0  0
    2.9802   -3.0054   -1.1923 H   0  0  0  0  0  0  0  0  0  0  0  0
    3.2747   -0.1666   -1.8441 H   0  0  0  0  0  0  0  0  0  0  0  0
    2.4588   -1.3936   -2.8581 H   0  0  0  0  0  0  0  0  0  0  0  0
    0.9024    2.4947    2.1512 H   0  0  0  0  0  0  0  0  0  0  0  0
   -0.7228    2.1078    2.7894 H   0  0  0  0  0  0  0  0  0  0  0  0
   -1.6443    3.3441    0.9825 H   0  0  0  0  0  0  0  0  0  0  0  0
    3.9517   -3.7726    0.9480 H   0  0  0  0  0  0  0  0  0  0  0  0
    4.5425   -2.5905    2.1429 H   0  0  0  0  0  0  0  0  0  0  0  0
    2.7859   -2.8130    1.8879 H   0  0  0  0  0  0  0  0  0  0  0  0
    5.2285   -0.9041   -1.1435 H   0  0  0  0  0  0  0  0  0  0  0  0
    5.9456   -1.4711    0.3771 H   0  0  0  0  0  0  0  0  0  0  0  0
    5.3808   -2.6522   -0.8278 H   0  0  0  0  0  0  0  0  0  0  0  0
    1.2071    2.1252   -1.1702 H   0  0  0  0  0  0  0  0  0  0  0  0
    2.0667    3.6891   -1.1626 H   0  0  0  0  0  0  0  0  0  0  0  0
    2.0429    2.6858    0.3014 H   0  0  0  0  0  0  0  0  0  0  0  0
   -1.5307    4.7318   -1.0680 H   0  0  0  0  0  0  0  0  0  0  0  0
    0.0152    4.9274   -1.9324 H   0  0  0  0  0  0  0  0  0  0  0  0
   -0.8673    3.3732   -2.0056 H   0  0  0  0  0  0  0  0  0  0  0  0
   -0.9165   -2.7689    0.6888 H   0  0  0  0  0  0  0  0  0  0  0  0
   -1.0596   -1.4568    1.8698 H   0  0  0  0  0  0  0  0  0  0  0  0
   -1.6942    0.0890   -1.9631 H   0  0  0  0  0  0  0  0  0  0  0  0
   -1.3827   -1.6658   -2.0981 H   0  0  0  0  0  0  0  0  0  0  0  0
   -3.7144   -2.4801    2.3293 H   0  0  0  0  0  0  0  0  0  0  0  0
   -6.0233   -2.2629    1.4184 H   0  0  0  0  0  0  0  0  0  0  0  0
   -6.3897   -1.3700   -0.8648 H   0  0  0  0  0  0  0  0  0  0  0  0
   -4.4532   -0.6740   -2.2703 H   0  0  0  0  0  0  0  0  0  0  0  0
    3.5500    0.4859    0.2165 H   0  0  0  0  0  0  0  0  0  0  0  0
    2.4966   -0.3127    1.4123 H   0  0  0  0  0  0  0  0  0  0  0  0
    4.2404   -0.1198    1.7349 H   0  0  0  0  0  0  0  0  0  0  0  0
   -0.3990    5.4652    1.0818 H   0  0  0  0  0  0  0  0  0  0  0  0
    1.0686    4.6354    1.6625 H   0  0  0  0  0  0  0  0  0  0  0  0
    1.1387    5.6442    0.2049 H   0  0  0  0  0  0  0  0  0  0  0  0
  1  2  1  0  0  0  0
  1  5  1  0  0  0  0
  2  3  2  0  0  0  0
  2  6  1  0  0  0  0
  3  4  1  0  0  0  0
  4  5  1  0  0  0  0
  4 12  1  0  0  0  0
  4 28  1  6  0  0  0
  5 29  1  0  0  0  0
  5 30  1  0  0  0  0
  6 10  1  0  0  0  0
  6 18  1  0  0  0  0
  6 21  1  0  0  0  0
  7  8  1  0  0  0  0
  7 11  1  0  0  0  0
  7 31  1  0  0  0  0
  7 32  1  0  0  0  0
  8  9  1  0  0  0  0
  8 13  1  0  0  0  0
  8 33  1  1  0  0  0
  9 10  2  0  0  0  0
 10 11  1  0  0  0  0
 12 14  1  0  0  0  0
 12 15  1  0  0  0  0
 12 26  1  0  0  0  0
 13 16  1  0  0  0  0
 13 17  1  0  0  0  0
 13 27  1  0  0  0  0
 14 34  1  0  0  0  0
 14 35  1  0  0  0  0
 14 36  1  0  0  0  0
 15 37  1  0  0  0  0
 15 38  1  0  0  0  0
 15 39  1  0  0  0  0
 16 40  1  0  0  0  0
 16 41  1  0  0  0  0
 16 42  1  0  0  0  0
 17 43  1  0  0  0  0
 17 44  1  0  0  0  0
 17 45  1  0  0  0  0
 18 19  1  0  0  0  0
 18 46  1  0  0  0  0
 18 47  1  0  0  0  0
 19 20  2  0  0  0  0
 19 22  1  0  0  0  0
 20 21  1  0  0  0  0
 20 25  1  0  0  0  0
 21 48  1  0  0  0  0
 21 49  1  0  0  0  0
 22 23  2  0  0  0  0
 22 50  1  0  0  0  0
 23 24  1  0  0  0  0
 23 51  1  0  0  0  0
 24 25  2  0  0  0  0
 24 52  1  0  0  0  0
 25 53  1  0  0  0  0
 26 54  1  0  0  0  0
 26 55  1  0  0  0  0
 26 56  1  0  0  0  0
 27 57  1  0  0  0  0
 27 58  1  0  0  0  0
 27 59  1  0  0  0  0
M  END
$$$$
