Title Card Required
 OpenBabel03192317463D

 75 82  0  0  1  0  0  0  0  0999 V2000
    1.6323   -0.3453   -0.4851 O   0  0  0  0  0  0  0  0  0  0  0  0
    1.0258   -1.0570    0.4979 C   0  0  0  0  0  0  0  0  0  0  0  0
    1.6598   -1.2609    1.5711 N   0  0  0  0  0  0  0  0  0  0  0  0
    2.9481   -0.5859    1.4477 C   0  0  1  0  0  0  0  0  0  0  0  0
    2.9462   -0.0261   -0.0233 C   0  0  1  0  0  0  0  0  0  0  0  0
   -0.3641   -1.5152    0.1637 C   0  0  0  0  0  0  0  0  0  0  0  0
   -2.1900    1.6246    0.0540 C   0  0  2  0  0  0  0  0  0  0  0  0
   -2.1790    1.2353   -1.4670 C   0  0  2  0  0  0  0  0  0  0  0  0
   -1.5927   -0.1013   -1.4744 N   0  0  0  0  0  0  0  0  0  0  0  0
   -1.1259   -0.3039   -0.3173 C   0  0  0  0  0  0  0  0  0  0  0  0
   -1.3040    0.6530    0.6243 O   0  0  0  0  0  0  0  0  0  0  0  0
   -1.0949   -2.1428    1.3737 C   0  0  0  0  0  0  0  0  0  0  0  0
   -2.0807   -3.0714    0.7093 C   0  0  0  0  0  0  0  0  0  0  0  0
   -1.6812   -3.3455   -0.6045 C   0  0  0  0  0  0  0  0  0  0  0  0
   -0.3988   -2.6135   -0.9271 C   0  0  0  0  0  0  0  0  0  0  0  0
   -3.2418   -3.6361    1.2290 C   0  0  0  0  0  0  0  0  0  0  0  0
   -4.0014   -4.4852    0.4197 C   0  0  0  0  0  0  0  0  0  0  0  0
   -3.5993   -4.7629   -0.8877 C   0  0  0  0  0  0  0  0  0  0  0  0
   -2.4343   -4.1940   -1.4090 C   0  0  0  0  0  0  0  0  0  0  0  0
    4.0052   -0.6389   -0.9029 C   0  0  0  0  0  0  0  0  0  0  0  0
   -3.5563    1.5239    0.6823 C   0  0  0  0  0  0  0  0  0  0  0  0
   -1.3847    2.2133   -2.3081 C   0  0  0  0  0  0  0  0  0  0  0  0
    3.1195    0.5034    2.4833 C   0  0  0  0  0  0  0  0  0  0  0  0
   -4.1389    0.2726    0.9178 C   0  0  0  0  0  0  0  0  0  0  0  0
   -5.4256    0.1872    1.4427 C   0  0  0  0  0  0  0  0  0  0  0  0
   -6.1444    1.3479    1.7346 C   0  0  0  0  0  0  0  0  0  0  0  0
   -5.5698    2.5951    1.4991 C   0  0  0  0  0  0  0  0  0  0  0  0
   -4.2790    2.6812    0.9764 C   0  0  0  0  0  0  0  0  0  0  0  0
   -0.0121    2.0442   -2.5101 C   0  0  0  0  0  0  0  0  0  0  0  0
    0.7111    2.9955   -3.2294 C   0  0  0  0  0  0  0  0  0  0  0  0
    0.0734    4.1203   -3.7508 C   0  0  0  0  0  0  0  0  0  0  0  0
   -1.2967    4.2915   -3.5533 C   0  0  0  0  0  0  0  0  0  0  0  0
   -2.0209    3.3405   -2.8374 C   0  0  0  0  0  0  0  0  0  0  0  0
    4.3663    0.7252    3.0719 C   0  0  0  0  0  0  0  0  0  0  0  0
    4.5451    1.7684    3.9807 C   0  0  0  0  0  0  0  0  0  0  0  0
    3.4738    2.5964    4.3096 C   0  0  0  0  0  0  0  0  0  0  0  0
    2.2247    2.3773    3.7263 C   0  0  0  0  0  0  0  0  0  0  0  0
    2.0465    1.3366    2.8176 C   0  0  0  0  0  0  0  0  0  0  0  0
    5.3235   -0.1859   -0.7818 C   0  0  0  0  0  0  0  0  0  0  0  0
    6.3401   -0.7697   -1.5330 C   0  0  0  0  0  0  0  0  0  0  0  0
    6.0463   -1.8085   -2.4174 C   0  0  0  0  0  0  0  0  0  0  0  0
    4.7330   -2.2559   -2.5461 C   0  0  0  0  0  0  0  0  0  0  0  0
    3.7134   -1.6742   -1.7918 C   0  0  0  0  0  0  0  0  0  0  0  0
    3.7581   -1.3210    1.5685 H   0  0  0  0  0  0  0  0  0  0  0  0
    3.0461    1.0694   -0.0227 H   0  0  0  0  0  0  0  0  0  0  0  0
   -1.7596    2.6209    0.2202 H   0  0  0  0  0  0  0  0  0  0  0  0
   -3.2097    1.1910   -1.8486 H   0  0  0  0  0  0  0  0  0  0  0  0
   -0.3635   -2.6992    1.9801 H   0  0  0  0  0  0  0  0  0  0  0  0
   -1.5504   -1.3819    2.0220 H   0  0  0  0  0  0  0  0  0  0  0  0
   -0.3779   -2.1827   -1.9359 H   0  0  0  0  0  0  0  0  0  0  0  0
    0.4677   -3.2846   -0.8010 H   0  0  0  0  0  0  0  0  0  0  0  0
   -3.5565   -3.4156    2.2515 H   0  0  0  0  0  0  0  0  0  0  0  0
   -4.9175   -4.9307    0.8109 H   0  0  0  0  0  0  0  0  0  0  0  0
   -4.2056   -5.4218   -1.5114 H   0  0  0  0  0  0  0  0  0  0  0  0
   -2.1292   -4.4030   -2.4361 H   0  0  0  0  0  0  0  0  0  0  0  0
   -3.5895   -0.6434    0.6829 H   0  0  0  0  0  0  0  0  0  0  0  0
   -5.8702   -0.7936    1.6205 H   0  0  0  0  0  0  0  0  0  0  0  0
   -7.1521    1.2778    2.1467 H   0  0  0  0  0  0  0  0  0  0  0  0
   -6.1243    3.5059    1.7303 H   0  0  0  0  0  0  0  0  0  0  0  0
   -3.8246    3.6594    0.8005 H   0  0  0  0  0  0  0  0  0  0  0  0
    0.4869    1.1602   -2.1075 H   0  0  0  0  0  0  0  0  0  0  0  0
    1.7816    2.8524   -3.3871 H   0  0  0  0  0  0  0  0  0  0  0  0
    0.6416    4.8610   -4.3156 H   0  0  0  0  0  0  0  0  0  0  0  0
   -1.8042    5.1650   -3.9660 H   0  0  0  0  0  0  0  0  0  0  0  0
   -3.0964    3.4708   -2.6892 H   0  0  0  0  0  0  0  0  0  0  0  0
    5.2039    0.0693    2.8210 H   0  0  0  0  0  0  0  0  0  0  0  0
    5.5227    1.9285    4.4386 H   0  0  0  0  0  0  0  0  0  0  0  0
    3.6093    3.4087    5.0252 H   0  0  0  0  0  0  0  0  0  0  0  0
    1.3811    3.0189    3.9859 H   0  0  0  0  0  0  0  0  0  0  0  0
    1.0654    1.1597    2.3686 H   0  0  0  0  0  0  0  0  0  0  0  0
    5.5508    0.6336   -0.0942 H   0  0  0  0  0  0  0  0  0  0  0  0
    7.3648   -0.4083   -1.4336 H   0  0  0  0  0  0  0  0  0  0  0  0
    6.8410   -2.2649   -3.0092 H   0  0  0  0  0  0  0  0  0  0  0  0
    4.4974   -3.0630   -3.2415 H   0  0  0  0  0  0  0  0  0  0  0  0
    2.6819   -2.0122   -1.9002 H   0  0  0  0  0  0  0  0  0  0  0  0
  1  2  1  0  0  0  0
  1  5  1  0  0  0  0
  2  3  2  0  0  0  0
  2  6  1  0  0  0  0
  3  4  1  0  0  0  0
  4  5  1  0  0  0  0
  4 23  1  0  0  0  0
  4 44  1  1  0  0  0
  5 20  1  0  0  0  0
  5 45  1  1  0  0  0
  6 10  1  0  0  0  0
  6 12  1  0  0  0  0
  6 15  1  0  0  0  0
  7  8  1  0  0  0  0
  7 11  1  0  0  0  0
  7 21  1  0  0  0  0
  7 46  1  1  0  0  0
  8  9  1  0  0  0  0
  8 22  1  0  0  0  0
  8 47  1  6  0  0  0
  9 10  2  0  0  0  0
 10 11  1  0  0  0  0
 12 13  1  0  0  0  0
 12 48  1  0  0  0  0
 12 49  1  0  0  0  0
 13 14  2  0  0  0  0
 13 16  1  0  0  0  0
 14 15  1  0  0  0  0
 14 19  1  0  0  0  0
 15 50  1  0  0  0  0
 15 51  1  0  0  0  0
 16 17  2  0  0  0  0
 16 52  1  0  0  0  0
 17 18  1  0  0  0  0
 17 53  1  0  0  0  0
 18 19  2  0  0  0  0
 18 54  1  0  0  0  0
 19 55  1  0  0  0  0
 20 39  2  0  0  0  0
 20 43  1  0  0  0  0
 21 24  2  0  0  0  0
 21 28  1  0  0  0  0
 22 29  2  0  0  0  0
 22 33  1  0  0  0  0
 23 34  2  0  0  0  0
 23 38  1  0  0  0  0
 24 25  1  0  0  0  0
 24 56  1  0  0  0  0
 25 26  2  0  0  0  0
 25 57  1  0  0  0  0
 26 27  1  0  0  0  0
 26 58  1  0  0  0  0
 27 28  2  0  0  0  0
 27 59  1  0  0  0  0
 28 60  1  0  0  0  0
 29 30  1  0  0  0  0
 29 61  1  0  0  0  0
 30 31  2  0  0  0  0
 30 62  1  0  0  0  0
 31 32  1  0  0  0  0
 31 63  1  0  0  0  0
 32 33  2  0  0  0  0
 32 64  1  0  0  0  0
 33 65  1  0  0  0  0
 34 35  1  0  0  0  0
 34 66  1  0  0  0  0
 35 36  2  0  0  0  0
 35 67  1  0  0  0  0
 36 37  1  0  0  0  0
 36 68  1  0  0  0  0
 37 38  2  0  0  0  0
 37 69  1  0  0  0  0
 38 70  1  0  0  0  0
 39 40  1  0  0  0  0
 39 71  1  0  0  0  0
 40 41  2  0  0  0  0
 40 72  1  0  0  0  0
 41 42  1  0  0  0  0
 41 73  1  0  0  0  0
 42 43  2  0  0  0  0
 42 74  1  0  0  0  0
 43 75  1  0  0  0  0
M  END
$$$$
