Title Card Required
 OpenBabel03192317483D

 54 57  0  0  1  0  0  0  0  0999 V2000
   -4.4172   -1.1802    2.0430 C   0  0  0  0  0  0  0  0  0  0  0  0
   -4.2396   -2.3318    1.2811 C   0  0  0  0  0  0  0  0  0  0  0  0
   -3.4227   -2.3052    0.1502 C   0  0  0  0  0  0  0  0  0  0  0  0
   -2.7630   -1.1348   -0.2077 C   0  0  0  0  0  0  0  0  0  0  0  0
   -2.9543    0.0395    0.5403 C   0  0  0  0  0  0  0  0  0  0  0  0
   -3.7833    0.0010    1.6678 C   0  0  0  0  0  0  0  0  0  0  0  0
   -2.3282    1.3174    0.1657 C   0  0  0  0  0  0  0  0  0  0  0  0
   -1.7746   -1.2824   -1.7579 S   0  0  2  0  0  0  0  0  0  0  0  0
   -1.5621    1.5145   -0.8275 N   0  0  0  0  0  0  0  0  0  0  0  0
   -1.1063    2.9091   -0.7475 C   0  0  1  0  0  0  0  0  0  0  0  0
   -2.0535    3.5200    0.3128 C   0  0  0  0  0  0  0  0  0  0  0  0
   -2.6001    2.3755    0.9694 O   0  0  0  0  0  0  0  0  0  0  0  0
   -2.0388   -2.6965   -2.1959 O   0  0  0  0  0  0  0  0  0  0  0  0
   -0.1307   -1.3531   -0.9840 C   0  0  0  0  0  0  0  0  0  0  0  0
    0.2098   -2.5162   -0.3040 C   0  0  0  0  0  0  0  0  0  0  0  0
    1.4946   -2.6549    0.2178 C   0  0  0  0  0  0  0  0  0  0  0  0
    2.4596   -1.6523    0.0504 C   0  0  0  0  0  0  0  0  0  0  0  0
    2.0945   -0.5058   -0.6711 C   0  0  0  0  0  0  0  0  0  0  0  0
    0.8143   -0.3537   -1.1963 C   0  0  0  0  0  0  0  0  0  0  0  0
    3.8826   -1.7748    0.6032 C   0  0  0  0  0  0  0  0  0  0  0  0
    4.0968   -3.0912    1.3550 C   0  0  0  0  0  0  0  0  0  0  0  0
    4.8851   -1.7094   -0.5604 C   0  0  0  0  0  0  0  0  0  0  0  0
    4.1474   -0.6107    1.5708 C   0  0  0  0  0  0  0  0  0  0  0  0
    0.3596    2.9589   -0.3596 C   0  0  0  0  0  0  0  0  0  0  0  0
    1.3325    3.3774   -1.2675 C   0  0  0  0  0  0  0  0  0  0  0  0
    2.6801    3.4027   -0.9015 C   0  0  0  0  0  0  0  0  0  0  0  0
    3.0616    3.0113    0.3799 C   0  0  0  0  0  0  0  0  0  0  0  0
    2.0936    2.5834    1.2917 C   0  0  0  0  0  0  0  0  0  0  0  0
    0.7526    2.5543    0.9220 C   0  0  0  0  0  0  0  0  0  0  0  0
   -5.0591   -1.1951    2.9246 H   0  0  0  0  0  0  0  0  0  0  0  0
   -4.7463   -3.2574    1.5592 H   0  0  0  0  0  0  0  0  0  0  0  0
   -3.2835   -3.1813   -0.4871 H   0  0  0  0  0  0  0  0  0  0  0  0
   -3.9258    0.9174    2.2399 H   0  0  0  0  0  0  0  0  0  0  0  0
   -1.2322    3.3940   -1.7255 H   0  0  0  0  0  0  0  0  0  0  0  0
   -1.5419    4.1471    1.0530 H   0  0  0  0  0  0  0  0  0  0  0  0
   -2.8774    4.0869   -0.1460 H   0  0  0  0  0  0  0  0  0  0  0  0
   -0.5276   -3.3162   -0.2069 H   0  0  0  0  0  0  0  0  0  0  0  0
    1.7397   -3.5709    0.7540 H   0  0  0  0  0  0  0  0  0  0  0  0
    2.8197    0.2957   -0.8324 H   0  0  0  0  0  0  0  0  0  0  0  0
    0.5488    0.5371   -1.7634 H   0  0  0  0  0  0  0  0  0  0  0  0
    3.9479   -3.9609    0.6982 H   0  0  0  0  0  0  0  0  0  0  0  0
    5.1267   -3.1328    1.7388 H   0  0  0  0  0  0  0  0  0  0  0  0
    3.4139   -3.1824    2.2126 H   0  0  0  0  0  0  0  0  0  0  0  0
    4.8070   -0.7585   -1.1069 H   0  0  0  0  0  0  0  0  0  0  0  0
    5.9141   -1.7988   -0.1796 H   0  0  0  0  0  0  0  0  0  0  0  0
    4.7074   -2.5265   -1.2750 H   0  0  0  0  0  0  0  0  0  0  0  0
    4.0465    0.3597    1.0640 H   0  0  0  0  0  0  0  0  0  0  0  0
    3.4341   -0.6313    2.4088 H   0  0  0  0  0  0  0  0  0  0  0  0
    5.1670   -0.6806    1.9803 H   0  0  0  0  0  0  0  0  0  0  0  0
    1.0340    3.6881   -2.2716 H   0  0  0  0  0  0  0  0  0  0  0  0
    3.4311    3.7369   -1.6191 H   0  0  0  0  0  0  0  0  0  0  0  0
    4.1135    3.0369    0.6702 H   0  0  0  0  0  0  0  0  0  0  0  0
    2.3886    2.2653    2.2930 H   0  0  0  0  0  0  0  0  0  0  0  0
   -0.0022    2.2068    1.6337 H   0  0  0  0  0  0  0  0  0  0  0  0
  1  2  2  0  0  0  0
  1  6  1  0  0  0  0
  1 30  1  0  0  0  0
  2  3  1  0  0  0  0
  2 31  1  0  0  0  0
  3  4  2  0  0  0  0
  3 32  1  0  0  0  0
  4  5  1  0  0  0  0
  4  8  1  0  0  0  0
  5  6  2  0  0  0  0
  5  7  1  0  0  0  0
  6 33  1  0  0  0  0
  7  9  2  0  0  0  0
  7 12  1  0  0  0  0
  8 13  2  1  0  0  0
  8 14  1  0  0  0  0
  9 10  1  0  0  0  0
 10 11  1  0  0  0  0
 10 24  1  0  0  0  0
 10 34  1  6  0  0  0
 11 12  1  0  0  0  0
 11 35  1  0  0  0  0
 11 36  1  0  0  0  0
 14 15  2  0  0  0  0
 14 19  1  0  0  0  0
 15 16  1  0  0  0  0
 15 37  1  0  0  0  0
 16 17  2  0  0  0  0
 16 38  1  0  0  0  0
 17 18  1  0  0  0  0
 17 20  1  0  0  0  0
 18 19  2  0  0  0  0
 18 39  1  0  0  0  0
 19 40  1  0  0  0  0
 20 21  1  0  0  0  0
 20 22  1  0  0  0  0
 20 23  1  0  0  0  0
 21 41  1  0  0  0  0
 21 42  1  0  0  0  0
 21 43  1  0  0  0  0
 22 44  1  0  0  0  0
 22 45  1  0  0  0  0
 22 46  1  0  0  0  0
 23 47  1  0  0  0  0
 23 48  1  0  0  0  0
 23 49  1  0  0  0  0
 24 25  2  0  0  0  0
 24 29  1  0  0  0  0
 25 26  1  0  0  0  0
 25 50  1  0  0  0  0
 26 27  2  0  0  0  0
 26 51  1  0  0  0  0
 27 28  1  0  0  0  0
 27 52  1  0  0  0  0
 28 29  2  0  0  0  0
 28 53  1  0  0  0  0
 29 54  1  0  0  0  0
M  END
$$$$
