Title Card Required
 OpenBabel03192317483D

 70 73  0  0  1  0  0  0  0  0999 V2000
    0.7038   -1.4436    0.2469 C   0  0  1  0  0  3  0  0  0  0  0  0
    1.5564   -2.3282   -0.0828 N   0  0  0  0  0  2  0  0  0  0  0  0
    2.8178   -1.9609    0.5733 C   0  0  2  0  0  0  0  0  0  0  0  0
    2.6194   -0.4997    1.0307 C   0  0  0  0  0  0  0  0  0  0  0  0
    1.1663   -0.4066    1.0532 N   0  0  0  0  0  0  0  0  0  0  0  0
   -0.7042   -1.4436   -0.2460 C   0  0  1  0  0  3  0  0  0  0  0  0
   -1.5569   -2.3280    0.0840 N   0  0  0  0  0  2  0  0  0  0  0  0
   -2.8181   -1.9609   -0.5725 C   0  0  2  0  0  0  0  0  0  0  0  0
   -2.6195   -0.4999   -1.0305 C   0  0  0  0  0  0  0  0  0  0  0  0
   -1.1664   -0.4070   -1.0530 N   0  0  0  0  0  0  0  0  0  0  0  0
   -0.4632    0.7352   -1.4589 C   0  0  0  0  0  0  0  0  0  0  0  0
    0.8719    0.6468   -1.8763 C   0  0  0  0  0  0  0  0  0  0  0  0
    1.5768    1.7990   -2.2137 C   0  0  0  0  0  0  0  0  0  0  0  0
    0.9756    3.0609   -2.1893 C   0  0  0  0  0  0  0  0  0  0  0  0
   -0.3740    3.1269   -1.8259 C   0  0  0  0  0  0  0  0  0  0  0  0
   -1.0879    1.9900   -1.4627 C   0  0  0  0  0  0  0  0  0  0  0  0
    0.4634    0.7359    1.4588 C   0  0  0  0  0  0  0  0  0  0  0  0
   -0.8720    0.6480    1.8758 C   0  0  0  0  0  0  0  0  0  0  0  0
   -1.5765    1.8005    2.2129 C   0  0  0  0  0  0  0  0  0  0  0  0
   -0.9749    3.0622    2.1886 C   0  0  0  0  0  0  0  0  0  0  0  0
    0.3749    3.1277    1.8256 C   0  0  0  0  0  0  0  0  0  0  0  0
    1.0885    1.9904    1.4627 C   0  0  0  0  0  0  0  0  0  0  0  0
   -4.0079   -2.1633    0.3536 C   0  0  0  0  0  0  0  0  0  0  0  0
   -5.3609   -1.7617   -0.2416 C   0  0  0  0  0  0  0  0  0  0  0  0
    4.0073   -2.1639   -0.3530 C   0  0  0  0  0  0  0  0  0  0  0  0
    5.3604   -1.7621    0.2416 C   0  0  0  0  0  0  0  0  0  0  0  0
    5.6757   -2.5245    1.5282 C   0  0  0  0  0  0  0  0  0  0  0  0
    6.4671   -1.9681   -0.7915 C   0  0  0  0  0  0  0  0  0  0  0  0
   -5.6758   -2.5247   -1.5280 C   0  0  0  0  0  0  0  0  0  0  0  0
   -6.4679   -1.9670    0.7912 C   0  0  0  0  0  0  0  0  0  0  0  0
   -1.7376    4.3112    2.5461 C   0  0  0  0  0  0  0  0  0  0  0  0
    1.7386    4.3096   -2.5473 C   0  0  0  0  0  0  0  0  0  0  0  0
    2.9237   -2.6188    1.4546 H   0  0  0  0  0  0  0  0  0  0  0  0
    3.0500   -0.2719    2.0162 H   0  0  0  0  0  0  0  0  0  0  0  0
    3.0431    0.2053    0.2867 H   0  0  0  0  0  0  0  0  0  0  0  0
   -2.9239   -2.6192   -1.4535 H   0  0  0  0  0  0  0  0  0  0  0  0
   -3.0501   -0.2724   -2.0161 H   0  0  0  0  0  0  0  0  0  0  0  0
   -3.0432    0.2055   -0.2867 H   0  0  0  0  0  0  0  0  0  0  0  0
    1.3501   -0.3311   -1.9471 H   0  0  0  0  0  0  0  0  0  0  0  0
    2.6197    1.7081   -2.5278 H   0  0  0  0  0  0  0  0  0  0  0  0
   -0.8789    4.0962   -1.8103 H   0  0  0  0  0  0  0  0  0  0  0  0
   -2.1293    2.0816   -1.1530 H   0  0  0  0  0  0  0  0  0  0  0  0
   -1.3506   -0.3297    1.9466 H   0  0  0  0  0  0  0  0  0  0  0  0
   -2.6196    1.7099    2.5266 H   0  0  0  0  0  0  0  0  0  0  0  0
    0.8801    4.0968    1.8102 H   0  0  0  0  0  0  0  0  0  0  0  0
    2.1300    2.0816    1.1535 H   0  0  0  0  0  0  0  0  0  0  0  0
   -4.0340   -3.2239    0.6543 H   0  0  0  0  0  0  0  0  0  0  0  0
   -3.8251   -1.5832    1.2750 H   0  0  0  0  0  0  0  0  0  0  0  0
   -5.3226   -0.6835   -0.4839 H   0  0  0  0  0  0  0  0  0  0  0  0
    4.0332   -3.2247   -0.6532 H   0  0  0  0  0  0  0  0  0  0  0  0
    3.8242   -1.5842   -1.2746 H   0  0  0  0  0  0  0  0  0  0  0  0
    5.3224   -0.6838    0.4834 H   0  0  0  0  0  0  0  0  0  0  0  0
    5.6525   -3.6112    1.3471 H   0  0  0  0  0  0  0  0  0  0  0  0
    6.6785   -2.2671    1.8991 H   0  0  0  0  0  0  0  0  0  0  0  0
    4.9586   -2.3024    2.3318 H   0  0  0  0  0  0  0  0  0  0  0  0
    6.2575   -1.4143   -1.7184 H   0  0  0  0  0  0  0  0  0  0  0  0
    7.4415   -1.6338   -0.4065 H   0  0  0  0  0  0  0  0  0  0  0  0
    6.5543   -3.0352   -1.0506 H   0  0  0  0  0  0  0  0  0  0  0  0
   -5.6528   -3.6113   -1.3463 H   0  0  0  0  0  0  0  0  0  0  0  0
   -6.6785   -2.2674   -1.8993 H   0  0  0  0  0  0  0  0  0  0  0  0
   -4.9584   -2.3030   -2.3315 H   0  0  0  0  0  0  0  0  0  0  0  0
   -6.2585   -1.4129    1.7179 H   0  0  0  0  0  0  0  0  0  0  0  0
   -7.4421   -1.6327    0.4057 H   0  0  0  0  0  0  0  0  0  0  0  0
   -6.5553   -3.0340    1.0508 H   0  0  0  0  0  0  0  0  0  0  0  0
   -1.2406    4.8628    3.3576 H   0  0  0  0  0  0  0  0  0  0  0  0
   -1.8072    4.9910    1.6831 H   0  0  0  0  0  0  0  0  0  0  0  0
   -2.7589    4.0749    2.8727 H   0  0  0  0  0  0  0  0  0  0  0  0
    1.2417    4.8610   -3.3589 H   0  0  0  0  0  0  0  0  0  0  0  0
    1.8085    4.9896   -1.6846 H   0  0  0  0  0  0  0  0  0  0  0  0
    2.7598    4.0730   -2.8738 H   0  0  0  0  0  0  0  0  0  0  0  0
  1  2  1  6  0  0  0
  1  5  1  0  0  0  0
  1  6  1  0  0  0  0
  2  3  1  0  0  0  0
  3  4  1  0  0  0  0
  3 25  1  0  0  0  0
  3 33  1  1  0  0  0
  4  5  1  0  0  0  0
  4 34  1  0  0  0  0
  4 35  1  0  0  0  0
  5 17  1  0  0  0  0
  6  7  1  1  0  0  0
  6 10  1  0  0  0  0
  7  8  1  0  0  0  0
  8  9  1  0  0  0  0
  8 23  1  0  0  0  0
  8 36  1  6  0  0  0
  9 10  1  0  0  0  0
  9 37  1  0  0  0  0
  9 38  1  0  0  0  0
 10 11  1  0  0  0  0
 11 12  2  0  0  0  0
 11 16  1  0  0  0  0
 12 13  1  0  0  0  0
 12 39  1  0  0  0  0
 13 14  2  0  0  0  0
 13 40  1  0  0  0  0
 14 15  1  0  0  0  0
 14 32  1  0  0  0  0
 15 16  2  0  0  0  0
 15 41  1  0  0  0  0
 16 42  1  0  0  0  0
 17 18  2  0  0  0  0
 17 22  1  0  0  0  0
 18 19  1  0  0  0  0
 18 43  1  0  0  0  0
 19 20  2  0  0  0  0
 19 44  1  0  0  0  0
 20 21  1  0  0  0  0
 20 31  1  0  0  0  0
 21 22  2  0  0  0  0
 21 45  1  0  0  0  0
 22 46  1  0  0  0  0
 23 24  1  0  0  0  0
 23 47  1  0  0  0  0
 23 48  1  0  0  0  0
 24 29  1  0  0  0  0
 24 30  1  0  0  0  0
 24 49  1  0  0  0  0
 25 26  1  0  0  0  0
 25 50  1  0  0  0  0
 25 51  1  0  0  0  0
 26 27  1  0  0  0  0
 26 28  1  0  0  0  0
 26 52  1  0  0  0  0
 27 53  1  0  0  0  0
 27 54  1  0  0  0  0
 27 55  1  0  0  0  0
 28 56  1  0  0  0  0
 28 57  1  0  0  0  0
 28 58  1  0  0  0  0
 29 59  1  0  0  0  0
 29 60  1  0  0  0  0
 29 61  1  0  0  0  0
 30 62  1  0  0  0  0
 30 63  1  0  0  0  0
 30 64  1  0  0  0  0
 31 65  1  0  0  0  0
 31 66  1  0  0  0  0
 31 67  1  0  0  0  0
 32 68  1  0  0  0  0
 32 69  1  0  0  0  0
 32 70  1  0  0  0  0
M  END
$$$$
