Title Card Required
 OpenBabel03192317523D

 45 47  0  0  1  0  0  0  0  0999 V2000
    2.1844    0.3114    0.6846 C   0  0  0  0  0  0  0  0  0  0  0  0
    2.6241    1.1900   -0.3093 C   0  0  0  0  0  0  0  0  0  0  0  0
    3.5678    0.7988   -1.2505 C   0  0  0  0  0  0  0  0  0  0  0  0
    4.1077   -0.4851   -1.1836 C   0  0  0  0  0  0  0  0  0  0  0  0
    3.6771   -1.3741   -0.2046 C   0  0  0  0  0  0  0  0  0  0  0  0
    2.7254   -0.9738    0.7347 C   0  0  0  0  0  0  0  0  0  0  0  0
    1.0038    0.9291    1.8953 S   0  0  0  0  0  0  0  0  0  0  0  0
    0.6020   -0.1925    2.7146 O   0  0  0  0  0  0  0  0  0  0  0  0
    1.5851    2.1279    2.4547 O   0  0  0  0  0  0  0  0  0  0  0  0
   -0.2555    1.4094    0.9417 N   0  0  0  0  0  0  0  0  0  0  0  0
    2.3518   -1.8637    1.6264 F   0  0  0  0  0  0  0  0  0  0  0  0
    4.1829   -2.5912   -0.1583 F   0  0  0  0  0  0  0  0  0  0  0  0
    5.0099   -0.8609   -2.0629 F   0  0  0  0  0  0  0  0  0  0  0  0
    3.9606    1.6294   -2.1968 F   0  0  0  0  0  0  0  0  0  0  0  0
    2.1115    2.4030   -0.4056 F   0  0  0  0  0  0  0  0  0  0  0  0
   -1.3931    0.5028    0.7320 C   0  0  2  0  0  0  0  0  0  0  0  0
   -0.9426   -0.6615   -0.1912 C   0  0  1  0  0  0  0  0  0  0  0  0
   -2.0704   -1.6585   -0.3467 C   0  0  0  0  0  0  0  0  0  0  0  0
   -2.2671   -2.6303    0.6395 C   0  0  0  0  0  0  0  0  0  0  0  0
   -3.3448   -3.5104    0.5594 C   0  0  0  0  0  0  0  0  0  0  0  0
   -4.2326   -3.4289   -0.5135 C   0  0  0  0  0  0  0  0  0  0  0  0
   -4.0372   -2.4648   -1.5022 C   0  0  0  0  0  0  0  0  0  0  0  0
   -2.9625   -1.5804   -1.4195 C   0  0  0  0  0  0  0  0  0  0  0  0
   -2.5643    1.2823    0.1813 C   0  0  0  0  0  0  0  0  0  0  0  0
   -2.3919    2.2951   -0.7681 C   0  0  0  0  0  0  0  0  0  0  0  0
   -3.4965    2.9642   -1.2926 C   0  0  0  0  0  0  0  0  0  0  0  0
   -4.7837    2.6230   -0.8803 C   0  0  0  0  0  0  0  0  0  0  0  0
   -4.9628    1.6120    0.0631 C   0  0  0  0  0  0  0  0  0  0  0  0
   -3.8583    0.9492    0.5931 C   0  0  0  0  0  0  0  0  0  0  0  0
   -0.5086   -0.1275   -1.4646 N   0  0  0  0  0  0  0  0  0  0  0  0
   -0.4704    2.3903    1.1151 H   0  0  0  0  0  0  0  0  0  0  0  0
   -1.6894    0.0486    1.6905 H   0  0  0  0  0  0  0  0  0  0  0  0
   -0.1395   -1.1812    0.3726 H   0  0  0  0  0  0  0  0  0  0  0  0
   -1.5665   -2.6944    1.4772 H   0  0  0  0  0  0  0  0  0  0  0  0
   -3.4883   -4.2663    1.3332 H   0  0  0  0  0  0  0  0  0  0  0  0
   -5.0746   -4.1197   -0.5801 H   0  0  0  0  0  0  0  0  0  0  0  0
   -4.7303   -2.3972   -2.3424 H   0  0  0  0  0  0  0  0  0  0  0  0
   -2.8057   -0.8112   -2.1776 H   0  0  0  0  0  0  0  0  0  0  0  0
   -1.3882    2.5546   -1.1089 H   0  0  0  0  0  0  0  0  0  0  0  0
   -3.3500    3.7521   -2.0329 H   0  0  0  0  0  0  0  0  0  0  0  0
   -5.6475    3.1454   -1.2942 H   0  0  0  0  0  0  0  0  0  0  0  0
   -5.9667    1.3389    0.3911 H   0  0  0  0  0  0  0  0  0  0  0  0
   -3.9986    0.1521    1.3271 H   0  0  0  0  0  0  0  0  0  0  0  0
   -0.0978   -0.8557   -2.0441 H   0  0  0  0  0  0  0  0  0  0  0  0
    0.1825    0.6067   -1.3259 H   0  0  0  0  0  0  0  0  0  0  0  0
  1  2  2  0  0  0  0
  1  6  1  0  0  0  0
  1  7  1  0  0  0  0
  2  3  1  0  0  0  0
  2 15  1  0  0  0  0
  3  4  2  0  0  0  0
  3 14  1  0  0  0  0
  4  5  1  0  0  0  0
  4 13  1  0  0  0  0
  5  6  2  0  0  0  0
  5 12  1  0  0  0  0
  6 11  1  0  0  0  0
  7  8  2  0  0  0  0
  7  9  2  0  0  0  0
  7 10  1  0  0  0  0
 10 16  1  0  0  0  0
 10 31  1  0  0  0  0
 16 17  1  0  0  0  0
 16 24  1  0  0  0  0
 16 32  1  1  0  0  0
 17 18  1  0  0  0  0
 17 30  1  0  0  0  0
 17 33  1  1  0  0  0
 18 19  2  0  0  0  0
 18 23  1  0  0  0  0
 19 20  1  0  0  0  0
 19 34  1  0  0  0  0
 20 21  2  0  0  0  0
 20 35  1  0  0  0  0
 21 22  1  0  0  0  0
 21 36  1  0  0  0  0
 22 23  2  0  0  0  0
 22 37  1  0  0  0  0
 23 38  1  0  0  0  0
 24 25  2  0  0  0  0
 24 29  1  0  0  0  0
 25 26  1  0  0  0  0
 25 39  1  0  0  0  0
 26 27  2  0  0  0  0
 26 40  1  0  0  0  0
 27 28  1  0  0  0  0
 27 41  1  0  0  0  0
 28 29  2  0  0  0  0
 28 42  1  0  0  0  0
 29 43  1  0  0  0  0
 30 44  1  0  0  0  0
 30 45  1  0  0  0  0
M  END
$$$$
