Title Card Required
 OpenBabel03192317443D

 67 73  0  0  1  0  0  0  0  0999 V2000
    1.1944   -3.4552    0.0920 C   0  0  0  0  0  0  0  0  0  0  0  0
    1.1351   -2.0570    0.0817 C   0  0  0  0  0  0  0  0  0  0  0  0
    0.0000   -1.3712   -0.0000 N   0  0  0  0  0  0  0  0  0  0  0  0
   -1.1351   -2.0570   -0.0818 C   0  0  0  0  0  0  0  0  0  0  0  0
   -1.1944   -3.4552   -0.0921 C   0  0  0  0  0  0  0  0  0  0  0  0
    0.0000   -4.1625   -0.0000 C   0  0  0  0  0  0  0  0  0  0  0  0
    2.3998   -1.2846    0.1801 C   0  0  0  0  0  0  0  0  0  0  0  0
   -2.3997   -1.2846   -0.1801 C   0  0  0  0  0  0  0  0  0  0  0  0
    2.2954    0.0552    0.1343 O   0  0  0  0  0  0  0  0  0  0  0  0
    3.6271    0.5723    0.1546 C   0  0  2  0  0  0  0  0  0  0  0  0
    4.4926   -0.6989    0.4690 C   0  0  1  0  0  0  0  0  0  0  0  0
    3.5502   -1.8024    0.3242 N   0  0  0  0  0  0  0  0  0  0  0  0
   -3.5502   -1.8024   -0.3242 N   0  0  0  0  0  0  0  0  0  0  0  0
   -4.4926   -0.6989   -0.4690 C   0  0  2  0  0  0  0  0  0  0  0  0
   -3.6271    0.5723   -0.1546 C   0  0  1  0  0  0  0  0  0  0  0  0
   -2.2954    0.0552   -0.1343 O   0  0  0  0  0  0  0  0  0  0  0  0
    3.7683    1.6822    1.1599 C   0  0  0  0  0  0  0  0  0  0  0  0
    5.7130   -0.8070   -0.4129 C   0  0  0  0  0  0  0  0  0  0  0  0
   -5.7130   -0.8070    0.4129 C   0  0  0  0  0  0  0  0  0  0  0  0
   -3.7683    1.6821   -1.1599 C   0  0  0  0  0  0  0  0  0  0  0  0
   -2.8906    1.7825   -2.2418 C   0  0  0  0  0  0  0  0  0  0  0  0
   -3.0716    2.7809   -3.1978 C   0  0  0  0  0  0  0  0  0  0  0  0
   -4.1292    3.6820   -3.0819 C   0  0  0  0  0  0  0  0  0  0  0  0
   -5.0031    3.5882   -1.9990 C   0  0  0  0  0  0  0  0  0  0  0  0
   -4.8205    2.5951   -1.0380 C   0  0  0  0  0  0  0  0  0  0  0  0
   -5.6431   -1.4408    1.6564 C   0  0  0  0  0  0  0  0  0  0  0  0
   -6.7569   -1.4735    2.4935 C   0  0  0  0  0  0  0  0  0  0  0  0
   -7.9509   -0.8711    2.0970 C   0  0  0  0  0  0  0  0  0  0  0  0
   -8.0286   -0.2428    0.8548 C   0  0  0  0  0  0  0  0  0  0  0  0
   -6.9155   -0.2154    0.0154 C   0  0  0  0  0  0  0  0  0  0  0  0
    6.9154   -0.2152   -0.0154 C   0  0  0  0  0  0  0  0  0  0  0  0
    8.0285   -0.2426   -0.8548 C   0  0  0  0  0  0  0  0  0  0  0  0
    7.9510   -0.8711   -2.0969 C   0  0  0  0  0  0  0  0  0  0  0  0
    6.7570   -1.4736   -2.4934 C   0  0  0  0  0  0  0  0  0  0  0  0
    5.6432   -1.4410   -1.6563 C   0  0  0  0  0  0  0  0  0  0  0  0
    2.8907    1.7824    2.2419 C   0  0  0  0  0  0  0  0  0  0  0  0
    3.0716    2.7807    3.1979 C   0  0  0  0  0  0  0  0  0  0  0  0
    4.1291    3.6820    3.0820 C   0  0  0  0  0  0  0  0  0  0  0  0
    5.0029    3.5883    1.9990 C   0  0  0  0  0  0  0  0  0  0  0  0
    4.8203    2.5952    1.0379 C   0  0  0  0  0  0  0  0  0  0  0  0
    2.1662   -3.9423    0.1726 H   0  0  0  0  0  0  0  0  0  0  0  0
   -2.1662   -3.9423   -0.1727 H   0  0  0  0  0  0  0  0  0  0  0  0
    0.0000   -5.2532   -0.0000 H   0  0  0  0  0  0  0  0  0  0  0  0
    3.8613    0.9446   -0.8563 H   0  0  0  0  0  0  0  0  0  0  0  0
    4.8263   -0.6658    1.5203 H   0  0  0  0  0  0  0  0  0  0  0  0
   -4.8263   -0.6658   -1.5203 H   0  0  0  0  0  0  0  0  0  0  0  0
   -3.8613    0.9445    0.8563 H   0  0  0  0  0  0  0  0  0  0  0  0
   -2.0532    1.0871   -2.3136 H   0  0  0  0  0  0  0  0  0  0  0  0
   -2.3768    2.8586   -4.0355 H   0  0  0  0  0  0  0  0  0  0  0  0
   -4.2674    4.4635   -3.8306 H   0  0  0  0  0  0  0  0  0  0  0  0
   -5.8243    4.2991   -1.8956 H   0  0  0  0  0  0  0  0  0  0  0  0
   -5.4955    2.5315   -0.1805 H   0  0  0  0  0  0  0  0  0  0  0  0
   -4.7100   -1.9223    1.9554 H   0  0  0  0  0  0  0  0  0  0  0  0
   -6.6934   -1.9761    3.4601 H   0  0  0  0  0  0  0  0  0  0  0  0
   -8.8227   -0.8970    2.7526 H   0  0  0  0  0  0  0  0  0  0  0  0
   -8.9626    0.2209    0.5332 H   0  0  0  0  0  0  0  0  0  0  0  0
   -6.9800    0.2667   -0.9635 H   0  0  0  0  0  0  0  0  0  0  0  0
    6.9799    0.2670    0.9635 H   0  0  0  0  0  0  0  0  0  0  0  0
    8.9625    0.2212   -0.5333 H   0  0  0  0  0  0  0  0  0  0  0  0
    8.8227   -0.8969   -2.7526 H   0  0  0  0  0  0  0  0  0  0  0  0
    6.6936   -1.9763   -3.4600 H   0  0  0  0  0  0  0  0  0  0  0  0
    4.7101   -1.9226   -1.9553 H   0  0  0  0  0  0  0  0  0  0  0  0
    2.0534    1.0868    2.3138 H   0  0  0  0  0  0  0  0  0  0  0  0
    2.3769    2.8583    4.0357 H   0  0  0  0  0  0  0  0  0  0  0  0
    4.2673    4.4635    3.8307 H   0  0  0  0  0  0  0  0  0  0  0  0
    5.8241    4.2993    1.8955 H   0  0  0  0  0  0  0  0  0  0  0  0
    5.4952    2.5317    0.1803 H   0  0  0  0  0  0  0  0  0  0  0  0
  1  2  2  0  0  0  0
  1  6  1  0  0  0  0
  1 41  1  0  0  0  0
  2  3  1  0  0  0  0
  2  7  1  0  0  0  0
  3  4  2  0  0  0  0
  4  5  1  0  0  0  0
  4  8  1  0  0  0  0
  5  6  2  0  0  0  0
  5 42  1  0  0  0  0
  6 43  1  0  0  0  0
  7  9  1  0  0  0  0
  7 12  2  0  0  0  0
  8 13  2  0  0  0  0
  8 16  1  0  0  0  0
  9 10  1  0  0  0  0
 10 11  1  0  0  0  0
 10 17  1  0  0  0  0
 10 44  1  6  0  0  0
 11 12  1  0  0  0  0
 11 18  1  0  0  0  0
 11 45  1  1  0  0  0
 13 14  1  0  0  0  0
 14 15  1  0  0  0  0
 14 19  1  0  0  0  0
 14 46  1  6  0  0  0
 15 16  1  0  0  0  0
 15 20  1  0  0  0  0
 15 47  1  1  0  0  0
 17 36  2  0  0  0  0
 17 40  1  0  0  0  0
 18 31  2  0  0  0  0
 18 35  1  0  0  0  0
 19 26  2  0  0  0  0
 19 30  1  0  0  0  0
 20 21  2  0  0  0  0
 20 25  1  0  0  0  0
 21 22  1  0  0  0  0
 21 48  1  0  0  0  0
 22 23  2  0  0  0  0
 22 49  1  0  0  0  0
 23 24  1  0  0  0  0
 23 50  1  0  0  0  0
 24 25  2  0  0  0  0
 24 51  1  0  0  0  0
 25 52  1  0  0  0  0
 26 27  1  0  0  0  0
 26 53  1  0  0  0  0
 27 28  2  0  0  0  0
 27 54  1  0  0  0  0
 28 29  1  0  0  0  0
 28 55  1  0  0  0  0
 29 30  2  0  0  0  0
 29 56  1  0  0  0  0
 30 57  1  0  0  0  0
 31 32  1  0  0  0  0
 31 58  1  0  0  0  0
 32 33  2  0  0  0  0
 32 59  1  0  0  0  0
 33 34  1  0  0  0  0
 33 60  1  0  0  0  0
 34 35  2  0  0  0  0
 34 61  1  0  0  0  0
 35 62  1  0  0  0  0
 36 37  1  0  0  0  0
 36 63  1  0  0  0  0
 37 38  2  0  0  0  0
 37 64  1  0  0  0  0
 38 39  1  0  0  0  0
 38 65  1  0  0  0  0
 39 40  2  0  0  0  0
 39 66  1  0  0  0  0
 40 67  1  0  0  0  0
M  END
$$$$
