Title Card Required
 OpenBabel03192317483D

 45 47  0  0  1  0  0  0  0  0999 V2000
    1.1938    1.4056   -0.1452 C   0  0  0  0  0  0  0  0  0  0  0  0
    1.1285    0.0077   -0.1386 C   0  0  0  0  0  0  0  0  0  0  0  0
    0.0000   -0.6789   -0.0001 N   0  0  0  0  0  0  0  0  0  0  0  0
   -1.1285    0.0076    0.1385 C   0  0  0  0  0  0  0  0  0  0  0  0
   -1.1939    1.4055    0.1452 C   0  0  0  0  0  0  0  0  0  0  0  0
   -0.0001    2.1020    0.0000 C   0  0  0  0  0  0  0  0  0  0  0  0
    2.3945   -0.7547   -0.2950 C   0  0  0  0  0  0  0  0  0  0  0  0
   -2.3944   -0.7550    0.2948 C   0  0  0  0  0  0  0  0  0  0  0  0
    2.2889   -2.0881   -0.4152 O   0  0  0  0  0  0  0  0  0  0  0  0
    3.6270   -2.5886   -0.4362 C   0  0  0  0  0  0  0  0  0  0  0  0
    4.5034   -1.3156   -0.5392 C   0  0  1  0  0  0  0  0  0  0  0  0
    3.5475   -0.2260   -0.3393 N   0  0  0  0  0  0  0  0  0  0  0  0
   -3.5474   -0.2264    0.3399 N   0  0  0  0  0  0  0  0  0  0  0  0
   -4.5033   -1.3160    0.5394 C   0  0  2  0  0  0  0  0  0  0  0  0
   -3.6268   -2.5890    0.4357 C   0  0  0  0  0  0  0  0  0  0  0  0
   -2.2887   -2.0884    0.4143 O   0  0  0  0  0  0  0  0  0  0  0  0
    5.6618   -1.2759    0.4605 C   0  0  0  0  0  0  0  0  0  0  0  0
   -5.6617   -1.2759   -0.4602 C   0  0  0  0  0  0  0  0  0  0  0  0
   -6.6256   -2.4325   -0.2032 C   0  0  0  0  0  0  0  0  0  0  0  0
   -6.3818    0.0672   -0.4045 C   0  0  0  0  0  0  0  0  0  0  0  0
    6.6255   -2.4326    0.2034 C   0  0  0  0  0  0  0  0  0  0  0  0
    6.3821    0.0671    0.4052 C   0  0  0  0  0  0  0  0  0  0  0  0
   -0.0002    3.9869   -0.0001 Br  0  0  0  0  0  0  0  0  0  0  0  0
    2.1571    1.9005   -0.2629 H   0  0  0  0  0  0  0  0  0  0  0  0
   -2.1573    1.9003    0.2628 H   0  0  0  0  0  0  0  0  0  0  0  0
    3.7324   -3.2816   -1.2800 H   0  0  0  0  0  0  0  0  0  0  0  0
    3.8063   -3.1363    0.5037 H   0  0  0  0  0  0  0  0  0  0  0  0
    4.9334   -1.2080   -1.5528 H   0  0  0  0  0  0  0  0  0  0  0  0
   -4.9332   -1.2089    1.5531 H   0  0  0  0  0  0  0  0  0  0  0  0
   -3.7318   -3.2822    1.2794 H   0  0  0  0  0  0  0  0  0  0  0  0
   -3.8064   -3.1365   -0.5042 H   0  0  0  0  0  0  0  0  0  0  0  0
    5.2173   -1.3970    1.4648 H   0  0  0  0  0  0  0  0  0  0  0  0
   -5.2173   -1.3969   -1.4646 H   0  0  0  0  0  0  0  0  0  0  0  0
   -7.0660   -2.3472    0.8033 H   0  0  0  0  0  0  0  0  0  0  0  0
   -7.4500   -2.4231   -0.9302 H   0  0  0  0  0  0  0  0  0  0  0  0
   -6.1308   -3.4129   -0.2745 H   0  0  0  0  0  0  0  0  0  0  0  0
   -5.6806    0.8917   -0.5840 H   0  0  0  0  0  0  0  0  0  0  0  0
   -7.1861    0.1119   -1.1529 H   0  0  0  0  0  0  0  0  0  0  0  0
   -6.8359    0.2169    0.5884 H   0  0  0  0  0  0  0  0  0  0  0  0
    7.0659   -2.3473   -0.8030 H   0  0  0  0  0  0  0  0  0  0  0  0
    7.4498   -2.4234    0.9304 H   0  0  0  0  0  0  0  0  0  0  0  0
    6.1305   -3.4129    0.2745 H   0  0  0  0  0  0  0  0  0  0  0  0
    5.6812    0.8917    0.5849 H   0  0  0  0  0  0  0  0  0  0  0  0
    7.1864    0.1115    1.1536 H   0  0  0  0  0  0  0  0  0  0  0  0
    6.8363    0.2170   -0.5877 H   0  0  0  0  0  0  0  0  0  0  0  0
  1  2  2  0  0  0  0
  1  6  1  0  0  0  0
  1 24  1  0  0  0  0
  2  3  1  0  0  0  0
  2  7  1  0  0  0  0
  3  4  2  0  0  0  0
  4  5  1  0  0  0  0
  4  8  1  0  0  0  0
  5  6  2  0  0  0  0
  5 25  1  0  0  0  0
  6 23  1  0  0  0  0
  7  9  1  0  0  0  0
  7 12  2  0  0  0  0
  8 13  2  0  0  0  0
  8 16  1  0  0  0  0
  9 10  1  0  0  0  0
 10 11  1  0  0  0  0
 10 26  1  0  0  0  0
 10 27  1  0  0  0  0
 11 12  1  0  0  0  0
 11 17  1  0  0  0  0
 11 28  1  6  0  0  0
 13 14  1  0  0  0  0
 14 15  1  0  0  0  0
 14 18  1  0  0  0  0
 14 29  1  1  0  0  0
 15 16  1  0  0  0  0
 15 30  1  0  0  0  0
 15 31  1  0  0  0  0
 17 21  1  0  0  0  0
 17 22  1  0  0  0  0
 17 32  1  0  0  0  0
 18 19  1  0  0  0  0
 18 20  1  0  0  0  0
 18 33  1  0  0  0  0
 19 34  1  0  0  0  0
 19 35  1  0  0  0  0
 19 36  1  0  0  0  0
 20 37  1  0  0  0  0
 20 38  1  0  0  0  0
 20 39  1  0  0  0  0
 21 40  1  0  0  0  0
 21 41  1  0  0  0  0
 21 42  1  0  0  0  0
 22 43  1  0  0  0  0
 22 44  1  0  0  0  0
 22 45  1  0  0  0  0
M  END
$$$$
