Title Card Required
 OpenBabel03192317473D

 49 53  0  0  0  0  0  0  0  0999 V2000
   -0.5017   -0.1472   -1.6828 O   0  0  0  0  0  0  0  0  0  0  0  0
   -1.2258   -1.4195   -0.8215 P   0  0  0  0  0  0  0  0  0  0  0  0
   -0.2712   -1.3304    0.5627 O   0  0  0  0  0  0  0  0  0  0  0  0
    1.0547   -1.6466    0.3859 C   0  0  0  0  0  0  0  0  0  0  0  0
    1.9790   -0.6440    0.1057 C   0  0  0  0  0  0  0  0  0  0  0  0
    1.8144    0.8621    0.1012 C   0  0  0  0  0  0  0  0  0  0  0  0
    0.4999    1.5212   -0.2688 C   0  0  0  0  0  0  0  0  0  0  0  0
   -0.5035    1.1107   -1.1464 C   0  0  0  0  0  0  0  0  0  0  0  0
    2.9655    1.2662   -0.8622 C   0  0  0  0  0  0  0  0  0  0  0  0
    4.0815    0.2460   -0.5805 C   0  0  0  0  0  0  0  0  0  0  0  0
    3.3008   -0.9910   -0.1977 C   0  0  0  0  0  0  0  0  0  0  0  0
    3.7214   -2.3172   -0.1616 C   0  0  0  0  0  0  0  0  0  0  0  0
    2.7946   -3.3103    0.1627 C   0  0  0  0  0  0  0  0  0  0  0  0
    1.4640   -2.9816    0.4174 C   0  0  0  0  0  0  0  0  0  0  0  0
    2.0506    1.4764    1.5084 C   0  0  0  0  0  0  0  0  0  0  0  0
    1.4908    2.9045    1.4047 C   0  0  0  0  0  0  0  0  0  0  0  0
    0.3608    2.7372    0.4139 C   0  0  0  0  0  0  0  0  0  0  0  0
   -0.7221    3.5789    0.1765 C   0  0  0  0  0  0  0  0  0  0  0  0
   -1.6839    3.1910   -0.7599 C   0  0  0  0  0  0  0  0  0  0  0  0
   -1.5840    1.9609   -1.4059 C   0  0  0  0  0  0  0  0  0  0  0  0
   -2.5984   -0.7846   -0.0898 N   0  0  0  0  0  0  0  0  0  0  0  0
   -3.8578   -0.9552   -0.8032 C   0  0  0  0  0  0  0  0  0  0  0  0
   -4.9508   -1.6365    0.0096 C   0  0  0  0  0  0  0  0  0  0  0  0
   -2.6111    0.0606    1.1080 C   0  0  0  0  0  0  0  0  0  0  0  0
   -2.7361   -0.7260    2.4086 C   0  0  0  0  0  0  0  0  0  0  0  0
    3.2754    2.3128   -0.7291 H   0  0  0  0  0  0  0  0  0  0  0  0
    2.6066    1.1452   -1.8955 H   0  0  0  0  0  0  0  0  0  0  0  0
    4.7233    0.5728    0.2547 H   0  0  0  0  0  0  0  0  0  0  0  0
    4.7389    0.0774   -1.4449 H   0  0  0  0  0  0  0  0  0  0  0  0
    4.7534   -2.5796   -0.4017 H   0  0  0  0  0  0  0  0  0  0  0  0
    3.1030   -4.3567    0.1889 H   0  0  0  0  0  0  0  0  0  0  0  0
    0.7192   -3.7504    0.6270 H   0  0  0  0  0  0  0  0  0  0  0  0
    1.4599    0.9002    2.2377 H   0  0  0  0  0  0  0  0  0  0  0  0
    3.1062    1.4313    1.8131 H   0  0  0  0  0  0  0  0  0  0  0  0
    1.1477    3.3044    2.3694 H   0  0  0  0  0  0  0  0  0  0  0  0
    2.2476    3.6052    1.0147 H   0  0  0  0  0  0  0  0  0  0  0  0
   -0.8235    4.5209    0.7184 H   0  0  0  0  0  0  0  0  0  0  0  0
   -2.5370    3.8394   -0.9671 H   0  0  0  0  0  0  0  0  0  0  0  0
   -2.3503    1.6192   -2.1037 H   0  0  0  0  0  0  0  0  0  0  0  0
   -4.2177    0.0295   -1.1564 H   0  0  0  0  0  0  0  0  0  0  0  0
   -3.6534   -1.5506   -1.7083 H   0  0  0  0  0  0  0  0  0  0  0  0
   -5.2488   -1.0242    0.8727 H   0  0  0  0  0  0  0  0  0  0  0  0
   -5.8435   -1.7948   -0.6120 H   0  0  0  0  0  0  0  0  0  0  0  0
   -4.6026   -2.6114    0.3803 H   0  0  0  0  0  0  0  0  0  0  0  0
   -1.6929    0.6637    1.1377 H   0  0  0  0  0  0  0  0  0  0  0  0
   -3.4440    0.7767    0.9982 H   0  0  0  0  0  0  0  0  0  0  0  0
   -1.8809   -1.4068    2.5095 H   0  0  0  0  0  0  0  0  0  0  0  0
   -2.7396   -0.0409    3.2690 H   0  0  0  0  0  0  0  0  0  0  0  0
   -3.6588   -1.3210    2.4398 H   0  0  0  0  0  0  0  0  0  0  0  0
  1  2  1  0  0  0  0
  1  8  1  0  0  0  0
  2  3  1  0  0  0  0
  2 21  1  0  0  0  0
  3  4  1  0  0  0  0
  4  5  2  0  0  0  0
  4 14  1  0  0  0  0
  5  6  1  0  0  0  0
  5 11  1  0  0  0  0
  6  7  1  0  0  0  0
  6  9  1  0  0  0  0
  6 15  1  0  0  0  0
  7  8  2  0  0  0  0
  7 17  1  0  0  0  0
  8 20  1  0  0  0  0
  9 10  1  0  0  0  0
  9 26  1  0  0  0  0
  9 27  1  0  0  0  0
 10 11  1  0  0  0  0
 10 28  1  0  0  0  0
 10 29  1  0  0  0  0
 11 12  2  0  0  0  0
 12 13  1  0  0  0  0
 12 30  1  0  0  0  0
 13 14  2  0  0  0  0
 13 31  1  0  0  0  0
 14 32  1  0  0  0  0
 15 16  1  0  0  0  0
 15 33  1  0  0  0  0
 15 34  1  0  0  0  0
 16 17  1  0  0  0  0
 16 35  1  0  0  0  0
 16 36  1  0  0  0  0
 17 18  2  0  0  0  0
 18 19  1  0  0  0  0
 18 37  1  0  0  0  0
 19 20  2  0  0  0  0
 19 38  1  0  0  0  0
 20 39  1  0  0  0  0
 21 22  1  0  0  0  0
 21 24  1  0  0  0  0
 22 23  1  0  0  0  0
 22 40  1  0  0  0  0
 22 41  1  0  0  0  0
 23 42  1  0  0  0  0
 23 43  1  0  0  0  0
 23 44  1  0  0  0  0
 24 25  1  0  0  0  0
 24 45  1  0  0  0  0
 24 46  1  0  0  0  0
 25 47  1  0  0  0  0
 25 48  1  0  0  0  0
 25 49  1  0  0  0  0
M  END
$$$$
