Title Card Required
 OpenBabel03192317423D

 40 41  0  0  1  0  0  0  0  0999 V2000
   -0.4529    2.2694    0.4053 C   0  0  2  0  0  0  0  0  0  0  0  0
    0.5748    2.1414   -0.7657 C   0  0  1  0  0  0  0  0  0  0  0  0
    1.3902    3.3407   -0.8738 N   0  0  0  0  0  0  0  0  0  0  0  0
    0.3035    2.4451    1.6314 N   0  0  0  0  0  0  0  0  0  0  0  0
    1.4323    0.8968   -0.6003 C   0  0  0  0  0  0  0  0  0  0  0  0
    2.7512    0.9855   -0.1593 C   0  0  0  0  0  0  0  0  0  0  0  0
    3.5367   -0.1533    0.0423 C   0  0  0  0  0  0  0  0  0  0  0  0
    2.9998   -1.4172   -0.2123 C   0  0  0  0  0  0  0  0  0  0  0  0
    1.6807   -1.5219   -0.6752 C   0  0  0  0  0  0  0  0  0  0  0  0
    0.9142   -0.3822   -0.8656 C   0  0  0  0  0  0  0  0  0  0  0  0
    3.6757   -2.5798   -0.0545 O   0  0  0  0  0  0  0  0  0  0  0  0
    5.0115   -2.5185    0.3633 C   0  0  0  0  0  0  0  0  0  0  0  0
   -1.4901    1.1586    0.4059 C   0  0  0  0  0  0  0  0  0  0  0  0
   -2.4890    1.1429   -0.5679 C   0  0  0  0  0  0  0  0  0  0  0  0
   -3.4214    0.1081   -0.6531 C   0  0  0  0  0  0  0  0  0  0  0  0
   -3.3659   -0.9454    0.2667 C   0  0  0  0  0  0  0  0  0  0  0  0
   -2.3789   -0.9360    1.2600 C   0  0  0  0  0  0  0  0  0  0  0  0
   -1.4602    0.1027    1.3243 C   0  0  0  0  0  0  0  0  0  0  0  0
   -4.2195   -1.9940    0.2755 O   0  0  0  0  0  0  0  0  0  0  0  0
   -5.2240   -2.0422   -0.7010 C   0  0  0  0  0  0  0  0  0  0  0  0
   -0.9899    3.2147    0.2111 H   0  0  0  0  0  0  0  0  0  0  0  0
   -0.0023    2.0272   -1.6971 H   0  0  0  0  0  0  0  0  0  0  0  0
    0.8383    4.0892   -1.2861 H   0  0  0  0  0  0  0  0  0  0  0  0
    1.6083    3.6467    0.0765 H   0  0  0  0  0  0  0  0  0  0  0  0
    0.8746    1.6205    1.8158 H   0  0  0  0  0  0  0  0  0  0  0  0
   -0.3127    2.5797    2.4295 H   0  0  0  0  0  0  0  0  0  0  0  0
    3.1893    1.9711    0.0017 H   0  0  0  0  0  0  0  0  0  0  0  0
    4.5641   -0.0364    0.3841 H   0  0  0  0  0  0  0  0  0  0  0  0
    1.2850   -2.5162   -0.8842 H   0  0  0  0  0  0  0  0  0  0  0  0
   -0.1092   -0.4865   -1.2333 H   0  0  0  0  0  0  0  0  0  0  0  0
    5.6329   -1.9474   -0.3469 H   0  0  0  0  0  0  0  0  0  0  0  0
    5.1054   -2.0609    1.3629 H   0  0  0  0  0  0  0  0  0  0  0  0
    5.3762   -3.5509    0.4081 H   0  0  0  0  0  0  0  0  0  0  0  0
   -2.5452    1.9616   -1.2913 H   0  0  0  0  0  0  0  0  0  0  0  0
   -4.1848    0.1368   -1.4295 H   0  0  0  0  0  0  0  0  0  0  0  0
   -2.3564   -1.7636    1.9695 H   0  0  0  0  0  0  0  0  0  0  0  0
   -0.6950    0.0852    2.1021 H   0  0  0  0  0  0  0  0  0  0  0  0
   -5.9029   -1.1758   -0.6282 H   0  0  0  0  0  0  0  0  0  0  0  0
   -4.7987   -2.0769   -1.7182 H   0  0  0  0  0  0  0  0  0  0  0  0
   -5.7951   -2.9598   -0.5209 H   0  0  0  0  0  0  0  0  0  0  0  0
  1  2  1  0  0  0  0
  1  4  1  0  0  0  0
  1 13  1  0  0  0  0
  1 21  1  6  0  0  0
  2  3  1  0  0  0  0
  2  5  1  0  0  0  0
  2 22  1  6  0  0  0
  3 23  1  0  0  0  0
  3 24  1  0  0  0  0
  4 25  1  0  0  0  0
  4 26  1  0  0  0  0
  5  6  2  0  0  0  0
  5 10  1  0  0  0  0
  6  7  1  0  0  0  0
  6 27  1  0  0  0  0
  7  8  2  0  0  0  0
  7 28  1  0  0  0  0
  8  9  1  0  0  0  0
  8 11  1  0  0  0  0
  9 10  2  0  0  0  0
  9 29  1  0  0  0  0
 10 30  1  0  0  0  0
 11 12  1  0  0  0  0
 12 31  1  0  0  0  0
 12 32  1  0  0  0  0
 12 33  1  0  0  0  0
 13 14  2  0  0  0  0
 13 18  1  0  0  0  0
 14 15  1  0  0  0  0
 14 34  1  0  0  0  0
 15 16  2  0  0  0  0
 15 35  1  0  0  0  0
 16 17  1  0  0  0  0
 16 19  1  0  0  0  0
 17 18  2  0  0  0  0
 17 36  1  0  0  0  0
 18 37  1  0  0  0  0
 19 20  1  0  0  0  0
 20 38  1  0  0  0  0
 20 39  1  0  0  0  0
 20 40  1  0  0  0  0
M  END
$$$$
