Title Card Required
 OpenBabel03192317493D

 36 39  0  0  0  0  0  0  0  0999 V2000
   -1.2435    2.4768    2.7413 C   0  0  0  0  0  0  0  0  0  0  0  0
   -0.2762    2.4052    1.7101 C   0  0  0  0  0  0  0  0  0  0  0  0
   -0.5161    1.7217    0.5366 C   0  0  0  0  0  0  0  0  0  0  0  0
   -1.7706    1.0486    0.3581 C   0  0  0  0  0  0  0  0  0  0  0  0
   -2.7438    1.1322    1.3980 C   0  0  0  0  0  0  0  0  0  0  0  0
   -2.4571    1.8574    2.5854 C   0  0  0  0  0  0  0  0  0  0  0  0
   -2.0725    0.2957   -0.8032 C   0  0  0  0  0  0  0  0  0  0  0  0
   -3.2841   -0.3465   -0.9604 C   0  0  0  0  0  0  0  0  0  0  0  0
   -4.2517   -0.2384    0.0821 C   0  0  0  0  0  0  0  0  0  0  0  0
   -3.9888    0.4748    1.2235 C   0  0  0  0  0  0  0  0  0  0  0  0
    0.5160    1.7207   -0.5397 C   0  0  0  0  0  0  0  0  0  0  0  0
    0.2758    2.4015   -1.7147 C   0  0  0  0  0  0  0  0  0  0  0  0
    1.2431    2.4709   -2.7460 C   0  0  0  0  0  0  0  0  0  0  0  0
    2.4567    1.8520   -2.5890 C   0  0  0  0  0  0  0  0  0  0  0  0
    2.7436    1.1293   -1.4002 C   0  0  0  0  0  0  0  0  0  0  0  0
    1.7706    1.0478   -0.3599 C   0  0  0  0  0  0  0  0  0  0  0  0
    3.9887    0.4723   -1.2244 C   0  0  0  0  0  0  0  0  0  0  0  0
    4.2517   -0.2386   -0.0816 C   0  0  0  0  0  0  0  0  0  0  0  0
    3.2842   -0.3446    0.9612 C   0  0  0  0  0  0  0  0  0  0  0  0
    2.0726    0.2973    0.8029 C   0  0  0  0  0  0  0  0  0  0  0  0
    6.1146   -1.2020    0.1417 I   0  0  0  0  0  0  0  0  0  0  0  0
   -6.1144   -1.2024   -0.1396 I   0  0  0  0  0  0  0  0  0  0  0  0
    3.4925   -1.0395    2.0916 O   0  0  0  0  0  0  0  0  0  0  0  0
   -3.4923   -1.0436   -2.0893 O   0  0  0  0  0  0  0  0  0  0  0  0
   -1.0193    3.0333    3.6519 H   0  0  0  0  0  0  0  0  0  0  0  0
    0.6837    2.9109    1.8364 H   0  0  0  0  0  0  0  0  0  0  0  0
   -3.2171    1.9103    3.3674 H   0  0  0  0  0  0  0  0  0  0  0  0
   -1.3432    0.1977   -1.6070 H   0  0  0  0  0  0  0  0  0  0  0  0
   -4.7376    0.5447    2.0136 H   0  0  0  0  0  0  0  0  0  0  0  0
   -0.6841    2.9067   -1.8419 H   0  0  0  0  0  0  0  0  0  0  0  0
    1.0186    3.0254   -3.6579 H   0  0  0  0  0  0  0  0  0  0  0  0
    3.2166    1.9032   -3.3712 H   0  0  0  0  0  0  0  0  0  0  0  0
    4.7374    0.5406   -2.0148 H   0  0  0  0  0  0  0  0  0  0  0  0
    1.3434    0.2010    1.6071 H   0  0  0  0  0  0  0  0  0  0  0  0
    4.3714   -1.4423    2.0877 H   0  0  0  0  0  0  0  0  0  0  0  0
   -4.3708   -1.4474   -2.0841 H   0  0  0  0  0  0  0  0  0  0  0  0
  1  2  2  0  0  0  0
  1  6  1  0  0  0  0
  1 25  1  0  0  0  0
  2  3  1  0  0  0  0
  2 26  1  0  0  0  0
  3  4  2  0  0  0  0
  3 11  1  0  0  0  0
  4  5  1  0  0  0  0
  4  7  1  0  0  0  0
  5  6  2  0  0  0  0
  5 10  1  0  0  0  0
  6 27  1  0  0  0  0
  7  8  2  0  0  0  0
  7 28  1  0  0  0  0
  8  9  1  0  0  0  0
  8 24  1  0  0  0  0
  9 10  2  0  0  0  0
  9 22  1  0  0  0  0
 10 29  1  0  0  0  0
 11 12  2  0  0  0  0
 11 16  1  0  0  0  0
 12 13  1  0  0  0  0
 12 30  1  0  0  0  0
 13 14  2  0  0  0  0
 13 31  1  0  0  0  0
 14 15  1  0  0  0  0
 14 32  1  0  0  0  0
 15 16  2  0  0  0  0
 15 17  1  0  0  0  0
 16 20  1  0  0  0  0
 17 18  2  0  0  0  0
 17 33  1  0  0  0  0
 18 19  1  0  0  0  0
 18 21  1  0  0  0  0
 19 20  2  0  0  0  0
 19 23  1  0  0  0  0
 20 34  1  0  0  0  0
 23 35  1  0  0  0  0
 24 36  1  0  0  0  0
M  END
$$$$
