Title Card Required
 OpenBabel03192317473D

 60 67  0  0  0  0  0  0  0  0999 V2000
    2.3921   -0.4972    0.0142 N   0  0  0  0  0  0  0  0  0  0  0  0
    2.2292    0.8748    0.3777 C   0  0  0  0  0  0  0  0  0  0  0  0
    2.9453    1.8626   -0.3264 C   0  0  0  0  0  0  0  0  0  0  0  0
    3.9236    1.5442   -1.3727 C   0  0  0  0  0  0  0  0  0  0  0  0
    4.7159    0.4585   -1.4596 C   0  0  0  0  0  0  0  0  0  0  0  0
    4.7859   -0.6657   -0.5207 C   0  0  0  0  0  0  0  0  0  0  0  0
    3.6723   -1.0924    0.2274 C   0  0  0  0  0  0  0  0  0  0  0  0
    2.6965    3.2102   -0.0201 C   0  0  0  0  0  0  0  0  0  0  0  0
    1.7786    3.5719    0.9578 C   0  0  0  0  0  0  0  0  0  0  0  0
    1.0897    2.5821    1.6606 C   0  0  0  0  0  0  0  0  0  0  0  0
    1.3270    1.2391    1.3832 C   0  0  0  0  0  0  0  0  0  0  0  0
    3.7927   -2.1470    1.1351 C   0  0  0  0  0  0  0  0  0  0  0  0
    5.0066   -2.8121    1.2898 C   0  0  0  0  0  0  0  0  0  0  0  0
    6.1127   -2.4123    0.5406 C   0  0  0  0  0  0  0  0  0  0  0  0
    5.9978   -1.3522   -0.3529 C   0  0  0  0  0  0  0  0  0  0  0  0
   -2.0488   -0.9919   -0.0185 C   0  0  0  0  0  0  0  0  0  0  0  0
   -1.1515   -1.8804    0.5443 C   0  0  0  0  0  0  0  0  0  0  0  0
   -1.5289   -3.1892    0.9323 C   0  0  0  0  0  0  0  0  0  0  0  0
   -2.8182   -3.6088    0.7424 C   0  0  0  0  0  0  0  0  0  0  0  0
   -3.7729   -2.7579    0.1209 C   0  0  0  0  0  0  0  0  0  0  0  0
   -5.0998   -3.2023   -0.1282 C   0  0  0  0  0  0  0  0  0  0  0  0
   -6.0052   -2.3953   -0.7708 C   0  0  0  0  0  0  0  0  0  0  0  0
   -5.6137   -1.1054   -1.2037 C   0  0  0  0  0  0  0  0  0  0  0  0
   -4.3418   -0.6431   -0.9676 C   0  0  0  0  0  0  0  0  0  0  0  0
   -3.3858   -1.4449   -0.2821 C   0  0  0  0  0  0  0  0  0  0  0  0
   -1.5913    0.3789   -0.3693 C   0  0  0  0  0  0  0  0  0  0  0  0
   -0.4824    0.5499   -1.1775 C   0  0  0  0  0  0  0  0  0  0  0  0
   -0.0890    1.8257   -1.6528 C   0  0  0  0  0  0  0  0  0  0  0  0
   -0.7560    2.9436   -1.2376 C   0  0  0  0  0  0  0  0  0  0  0  0
   -1.8262    2.8422   -0.3056 C   0  0  0  0  0  0  0  0  0  0  0  0
   -2.4644    4.0020    0.2087 C   0  0  0  0  0  0  0  0  0  0  0  0
   -3.4657    3.9019    1.1436 C   0  0  0  0  0  0  0  0  0  0  0  0
   -3.8672    2.6264    1.6064 C   0  0  0  0  0  0  0  0  0  0  0  0
   -3.2765    1.4853    1.1170 C   0  0  0  0  0  0  0  0  0  0  0  0
   -2.2457    1.5545    0.1383 C   0  0  0  0  0  0  0  0  0  0  0  0
    0.2736   -0.5184   -1.5841 O   0  0  0  0  0  0  0  0  0  0  0  0
    1.1782   -1.5148   -0.6020 P   0  0  0  0  0  0  0  0  0  0  0  0
    0.1467   -1.4902    0.7428 O   0  0  0  0  0  0  0  0  0  0  0  0
    4.0803    2.3332   -2.1143 H   0  0  0  0  0  0  0  0  0  0  0  0
    5.4568    0.4414   -2.2637 H   0  0  0  0  0  0  0  0  0  0  0  0
    3.2397    3.9810   -0.5714 H   0  0  0  0  0  0  0  0  0  0  0  0
    1.5944    4.6261    1.1706 H   0  0  0  0  0  0  0  0  0  0  0  0
    0.3573    2.8547    2.4223 H   0  0  0  0  0  0  0  0  0  0  0  0
    0.7881    0.4524    1.9099 H   0  0  0  0  0  0  0  0  0  0  0  0
    2.9113   -2.4387    1.7098 H   0  0  0  0  0  0  0  0  0  0  0  0
    5.0863   -3.6428    1.9921 H   0  0  0  0  0  0  0  0  0  0  0  0
    7.0670   -2.9289    0.6513 H   0  0  0  0  0  0  0  0  0  0  0  0
    6.8629   -1.0402   -0.9420 H   0  0  0  0  0  0  0  0  0  0  0  0
   -0.7724   -3.8300    1.3861 H   0  0  0  0  0  0  0  0  0  0  0  0
   -3.1253   -4.6106    1.0488 H   0  0  0  0  0  0  0  0  0  0  0  0
   -5.3816   -4.2066    0.1952 H   0  0  0  0  0  0  0  0  0  0  0  0
   -7.0199   -2.7483   -0.9600 H   0  0  0  0  0  0  0  0  0  0  0  0
   -6.3267   -0.4745   -1.7364 H   0  0  0  0  0  0  0  0  0  0  0  0
   -4.0497    0.3473   -1.3163 H   0  0  0  0  0  0  0  0  0  0  0  0
    0.7627    1.8730   -2.3313 H   0  0  0  0  0  0  0  0  0  0  0  0
   -0.4513    3.9316   -1.5887 H   0  0  0  0  0  0  0  0  0  0  0  0
   -2.1334    4.9792   -0.1498 H   0  0  0  0  0  0  0  0  0  0  0  0
   -3.9451    4.7997    1.5362 H   0  0  0  0  0  0  0  0  0  0  0  0
   -4.6491    2.5457    2.3630 H   0  0  0  0  0  0  0  0  0  0  0  0
   -3.5896    0.5095    1.4892 H   0  0  0  0  0  0  0  0  0  0  0  0
  1  2  1  0  0  0  0
  1  7  1  0  0  0  0
  1 37  1  0  0  0  0
  2  3  2  0  0  0  0
  2 11  1  0  0  0  0
  3  4  1  0  0  0  0
  3  8  1  0  0  0  0
  4  5  2  0  0  0  0
  4 39  1  0  0  0  0
  5  6  1  0  0  0  0
  5 40  1  0  0  0  0
  6  7  2  0  0  0  0
  6 15  1  0  0  0  0
  7 12  1  0  0  0  0
  8  9  2  0  0  0  0
  8 41  1  0  0  0  0
  9 10  1  0  0  0  0
  9 42  1  0  0  0  0
 10 11  2  0  0  0  0
 10 43  1  0  0  0  0
 11 44  1  0  0  0  0
 12 13  2  0  0  0  0
 12 45  1  0  0  0  0
 13 14  1  0  0  0  0
 13 46  1  0  0  0  0
 14 15  2  0  0  0  0
 14 47  1  0  0  0  0
 15 48  1  0  0  0  0
 16 17  2  0  0  0  0
 16 25  1  0  0  0  0
 16 26  1  0  0  0  0
 17 18  1  0  0  0  0
 17 38  1  0  0  0  0
 18 19  2  0  0  0  0
 18 49  1  0  0  0  0
 19 20  1  0  0  0  0
 19 50  1  0  0  0  0
 20 21  2  0  0  0  0
 20 25  1  0  0  0  0
 21 22  1  0  0  0  0
 21 51  1  0  0  0  0
 22 23  2  0  0  0  0
 22 52  1  0  0  0  0
 23 24  1  0  0  0  0
 23 53  1  0  0  0  0
 24 25  2  0  0  0  0
 24 54  1  0  0  0  0
 26 27  2  0  0  0  0
 26 35  1  0  0  0  0
 27 28  1  0  0  0  0
 27 36  1  0  0  0  0
 28 29  2  0  0  0  0
 28 55  1  0  0  0  0
 29 30  1  0  0  0  0
 29 56  1  0  0  0  0
 30 31  2  0  0  0  0
 30 35  1  0  0  0  0
 31 32  1  0  0  0  0
 31 57  1  0  0  0  0
 32 33  2  0  0  0  0
 32 58  1  0  0  0  0
 33 34  1  0  0  0  0
 33 59  1  0  0  0  0
 34 35  2  0  0  0  0
 34 60  1  0  0  0  0
 36 37  1  0  0  0  0
 37 38  1  0  0  0  0
M  END
$$$$
